units(length='cm', time='s', quantity='mol', act_energy='kcal/mol')

ideal_gas(name='gas',
          elements="H D T C Ci O Oi N Ne Ar He Si S Cl I X",
          species="""N2          Ar          Ne          nC10H22(1)
                     O2(2)       CH(3)       C2H(4)      O(5)
                     CO(6)       CO2(7)      H2O(8)      CH2O(9)
                     CH4(10)     C2H4(11)    C3H6(12)    H2(13)
                     H(14)       OH(15)      He(16)      HO2(17)
                     H2O2(18)    HOCO(19)    HCO(20)     CH3(21)
                     CH2(22)     CH3OH(23)   CH2(S)(24)  CH2OH(25)
                     CH3O(26)    HCOH(27)    CH3OO(28)   CH2CO(29)
                     C2H5(30)    C2H3(31)    C(32)       C2H2(33)
                     CH3OOH(34)  CH2OOH(35)  C2H6(36)    CH3CHO(37)
                     C2H5O(38)   C2H5O2(39)  CH2CHO(40)  H2CC(41)
                     C2H4O(42)   C2H5O(43)   cC2H4O(44)  C2H5O2(45)
                     C2H3O2(46)  CHCHO(47)   OCHCHO(48)  HCCO(49)
                     HCCOH(50)   CHCHOH(51)  C2(52)      C2O(53)
                     C2H6O(54)   C2H5O(55)   C2H5O3(56)  CH3CO(57)
                     cC2H3O(58)  HOCHO(59)   C2H3O3(60)  OCHCO(61)
                     C2H6O2(62)  C2H5O2(63)  C2H4O2(64)  HOCH2O(65)
                     OCHO(66)    C2H4O3(67)  C2H3O2(68)  O2CHO(69)
                     HO2CHO(70)  CH3O3(71)   CH3O3(72)   CH4O3(73)
                     C2H3O3(74)  C2H3O3(75)  H2CC(76)    C3H3(77)
                     C3H6O(78)   C3H5O(79)   C3H5O2(80)  C3H5O3(81)
                     C3H6O3(82)  C3H4O(83)   C2H3CO(84)  C3H6O(85)
                     C2H5CO(86)  C2H6O(87)   C2H5O(88)   C2H5O3(89)
                     C2H6O3(90)  C2H5O3(91)  C2H5O5(92)  C2H4O4(93)
                     C2H3O3(94)  C2H5O2(95)  C2H4O2(96)  C2H3O3(97)
                     C2H3O2(98)  CH3OCO(99)  C3H8(100)   NC3H7(101)
                     IC3H7(102)  C3H5(103)   S(104)      S(105)
                     S(106)      S(107)      CC3H6(108)  C3H5(109)
                     C3H5(110)   C6H5(111)   C6H6(112)   C6H6(113)
                     C4H5(114)   C4H5(115)   C4H3(116)   C4H5(117)
                     C4H2(118)   C5H6(119)   C5H5(120)   C4H4(121)
                     S(122)      S(123)      S(124)      C3H6O(125)
                     C3H6O(126)  S(127)      S(128)      S(129)
                     C3H5O(137)  C3H5O(140)  C3H4(174)   C3H5O(175)
                     C3H7O(187)  C3H7O(188)  PC4H9(190)  SC4H9(191)
                     S(192)      C4H7(198)   C4H6(202)   C4H8O(222)
                     S(227)      S(228)      S(233)      S(246)
                     S(260)      C4H7O(276)  S(319)      S(326)
                     C6H10(347)  C5H11(426)  C5H11(427)  S(441)
                     S(443)      S(448)      S(449)      S(453)
                     S(454)      S(459)      C7H15(684)  C8H17(685)
                     C6H13(687)  S(689)      S(691)      S(692)
                     S(725)      C2H2O(730)  C2H4(752)   C3H6(753)
                     C6H12(755)  C6H13(762)  S(786)      S(827)
                     S(862)      S(881)      C4H7O(963)  S(991)
                     S(1013)     S(1032)     S(1037)     S(1039)
                     S(1043)     S(1046)     S(1058)     S(1075)
                     S(1079)     S(1083)     S(1090)     S(1106)
                     S(1109)     S(1169)     S(1198)     S(1211)
                     S(1260)     S(1264)     S(1299)     S(1306)
                     S(1311)     S(1315)     S(1349)     S(1359)
                     S(1404)     S(1406)     S(1425)     S(1434)
                     S(1920)     S(1921)     S(2175)     S(2273)
                     S(2597)     S(2745)     S(2748)     S(2757)
                     S(2775)     S(2829)     S(2830)     S(2835)
                     S(2859)     S(2877)     S(2878)     S(2943)
                     S(3008)     S(3067)     C4H6(3155)  C4H6(3160)
                     S(3328)     S(3468)     S(3469)     S(3500)
                     S(3501)     S(3576)     S(3600)     S(3607)
                     S(3611)     S(3639)     S(3719)     S(3742)
                     S(3747)     S(3751)     S(3787)     S(3873)
                     S(3902)     S(3936)     S(3965)     S(4618)
                     S(4632)     S(4879)     CHO3(5259)  S(6204)
                     S(6205)     S(6208)     S(6216)     S(6223)
                     S(6409)     S(7246)     S(8191)     S(8204)
                     S(8238)     S(8316)     S(8835)     S(8847)
                     S(9013)     S(10626)    S(10628)    S(13025)
                     S(13057)    S(13490)    S(13579)    S(13639)
                     S(13676)    S(13959)    S(13960)    S(14485)
                     S(14512)    S(14523)    S(14561)    S(14575)
                     S(14581)    S(14957)    S(15476)    S(15826)
                     S(16437)    S(16441)    S(16837)    S(17352)
                     S(17366)    S(18491)    S(18567)    S(18583)
                     S(18716)    S(18742)    S(19185)    S(19188)
                     S(19604)    S(19675)    S(19713)    S(19761)
                     S(19909)    S(20448)    S(22669)    S(23250)
                     S(24138)    S(24236)    S(24303)    S(24305)
                     S(24644)    S(24837)    S(24864)    S(25056)
                     S(26155)    S(26631)    S(26654)    S(26767)
                     S(26945)    S(26982)    S(26987)    S(27022)
                     S(27031)    S(27048)    S(27112)    S(27169)
                     S(27486)    S(27684)    S(28817)    S(28832)
                     S(30358)    S(31065)    S(31303)""",
          reactions='all',
          transport='Mix',
          initial_state=state(temperature=300.0, pressure=OneAtm))

#-------------------------------------------------------------------------------
# Element data
#-------------------------------------------------------------------------------

element(symbol='Ci', atomic_mass=13.003)
element(symbol='D', atomic_mass=2.014)
element(symbol='Oi', atomic_mass=18.0)
element(symbol='T', atomic_mass=3.016)
element(symbol='X', atomic_mass=195.083)
#-------------------------------------------------------------------------------
# Species data
#-------------------------------------------------------------------------------

species(name='N2',
        atoms='N:2',
        thermo=(NASA([100.00, 1817.04],
                     [ 3.61262577E+00, -1.00892952E-03,  2.49898347E-06,
                      -1.43375499E-09,  2.58635395E-13, -1.05110288E+03,
                       2.65270399E+00]),
                NASA([1817.04, 5000.00],
                     [ 2.97590593E+00,  1.64140468E-03, -7.19719150E-07,
                       1.25377103E-10, -7.91522188E-15, -1.02584593E+03,
                       5.53754353E+00])),
        transport=gas_transport(geom='linear',
                                diam=3.621,
                                well_depth=97.53,
                                polar=1.76,
                                rot_relax=4.0))

species(name='Ar',
        atoms='Ar:1',
        thermo=(NASA([100.00, 4383.16],
                     [ 2.50000000E+00, -2.38914167E-13,  3.12709494E-16,
                      -1.33367320E-19,  1.74989654E-23, -7.45000000E+02,
                       4.36630363E+00]),
                NASA([4383.16, 5000.00],
                     [ 2.50003447E+00, -3.04996987E-08,  1.01101187E-11,
                      -1.48796738E-15,  8.20356170E-20, -7.45031138E+02,
                       4.36608535E+00])),
        transport=gas_transport(geom='atom',
                                diam=3.33,
                                well_depth=136.5))

species(name='Ne',
        atoms='Ne:1',
        thermo=(NASA([200.00, 1000.00],
                     [ 2.50000000E+00,  0.00000000E+00,  0.00000000E+00,
                       0.00000000E+00,  0.00000000E+00, -7.45375000E+02,
                       3.35532000E+00]),
                NASA([1000.00, 6000.00],
                     [ 2.50000000E+00,  0.00000000E+00,  0.00000000E+00,
                       0.00000000E+00,  0.00000000E+00, -7.45375000E+02,
                       3.35532000E+00])),
        transport=gas_transport(geom='atom',
                                diam=3.758,
                                well_depth=148.6))

species(name='nC10H22(1)',
        atoms='C:10 H:22',
        thermo=(NASA([100.00, 1753.74],
                     [-1.87595642E+00,  1.20581280E-01, -7.39939999E-05,
                       2.28626073E-08, -2.90803409E-12, -3.42986299E+04,
                       4.34818040E+01]),
                NASA([1753.74, 5000.00],
                     [ 2.27562642E+01,  6.43989615E-02, -2.59402799E-05,
                       4.59541278E-09, -3.03992226E-13, -4.29383060E+04,
                      -8.91915134E+01])),
        transport=gas_transport(geom='nonlinear',
                                diam=7.303,
                                well_depth=455.009))

species(name='O2(2)',
        atoms='O:2',
        thermo=(NASA([100.00, 1087.71],
                     [ 3.53763683E+00, -1.22827485E-03,  5.36758541E-06,
                      -4.93128012E-09,  1.45955076E-12, -1.03799025E+03,
                       4.67179818E+00]),
                NASA([1087.71, 5000.00],
                     [ 3.16427290E+00,  1.69453611E-03, -8.00335082E-07,
                       1.59029911E-10, -1.14890904E-14, -1.04844569E+03,
                       6.08302655E+00])),
        transport=gas_transport(geom='linear',
                                diam=3.467,
                                well_depth=106.7))

species(name='CH(3)',
        atoms='C:1 H:1',
        thermo=(NASA([200.00, 1000.00],
                     [ 3.47159000E+00,  4.04745000E-04, -1.89388000E-06,
                       3.33210000E-09, -1.51271000E-12,  7.07018000E+04,
                       2.14542000E+00]),
                NASA([1000.00, 3000.00],
                     [ 2.66195000E+00,  1.70245000E-03, -6.83824000E-07,
                       1.30980000E-10, -9.71843000E-15,  7.09589000E+04,
                       6.52673000E+00])),
        transport=gas_transport(geom='linear',
                                diam=2.75,
                                well_depth=80.0))

species(name='C2H(4)',
        atoms='C:2 H:1',
        thermo=(NASA([200.00, 1000.00],
                     [ 2.89868000E+00,  1.32988000E-02, -2.80733000E-05,
                       2.89485000E-08, -1.07502000E-11,  6.70616000E+04,
                       6.18548000E+00]),
                NASA([1000.00, 6000.00],
                     [ 3.66270000E+00,  3.82492000E-03, -1.36633000E-06,
                       2.13455000E-10, -1.23217000E-14,  6.71684000E+04,
                       3.92206000E+00])),
        transport=gas_transport(geom='linear',
                                diam=4.1,
                                well_depth=209.0,
                                rot_relax=2.5))

species(name='O(5)',
        atoms='O:1',
        thermo=(NASA([100.00, 4383.16],
                     [ 2.50000000E+00, -2.38914167E-13,  3.12709494E-16,
                      -1.33367320E-19,  1.74989654E-23,  2.92267216E+04,
                       5.11106770E+00]),
                NASA([4383.16, 5000.00],
                     [ 2.50003447E+00, -3.04996987E-08,  1.01101187E-11,
                      -1.48796738E-15,  8.20356170E-20,  2.92266905E+04,
                       5.11084942E+00])),
        transport=gas_transport(geom='atom',
                                diam=2.75,
                                well_depth=80.0))

species(name='CO(6)',
        atoms='C:1 O:1',
        thermo=(NASA([100.00, 1669.91],
                     [ 3.59709776E+00, -1.02424814E-03,  2.83338958E-06,
                      -1.75827500E-09,  3.42593462E-13, -1.43431899E+04,
                       3.45821758E+00]),
                NASA([1669.91, 5000.00],
                     [ 2.92790884E+00,  1.81937225E-03, -8.35341035E-07,
                       1.51276009E-10, -9.88923938E-15, -1.42926827E+04,
                       6.51184709E+00])),
        transport=gas_transport(geom='linear',
                                diam=3.69,
                                well_depth=91.7,
                                polar=1.76,
                                rot_relax=4.0))

species(name='CO2(7)',
        atoms='C:1 O:2',
        thermo=(NASA([100.00, 988.19],
                     [ 3.27789883E+00,  2.75786865E-03,  7.12771566E-06,
                      -1.07852526E-08,  4.14218887E-12, -4.84756030E+04,
                       5.97857134E+00]),
                NASA([988.19, 5000.00],
                     [ 4.55072680E+00,  2.90725847E-03, -1.14641692E-06,
                       2.25794394E-10, -1.69523485E-14, -4.89860152E+04,
                      -1.45670000E+00])),
        transport=gas_transport(geom='linear',
                                diam=3.941,
                                well_depth=195.201))

species(name='H2O(8)',
        atoms='H:2 O:1',
        thermo=(NASA([100.00, 1281.44],
                     [ 3.99881998E+00, -5.54830883E-04,  2.76774197E-06,
                      -1.55664942E-09,  3.02330299E-13, -3.02745569E+04,
                      -3.08941329E-02]),
                NASA([1281.44, 5000.00],
                     [ 3.19560339E+00,  1.95240061E-03, -1.67118548E-07,
                      -2.97937699E-11,  4.45138523E-15, -3.00687021E+04,
                       4.04334673E+00])),
        transport=gas_transport(geom='nonlinear',
                                diam=2.641,
                                well_depth=809.102,
                                polar=1.76,
                                rot_relax=4.0))

species(name='CH2O(9)',
        atoms='C:1 H:2 O:1',
        thermo=(NASA([200.00, 1000.00],
                     [ 4.79372000E+00, -9.90833000E-03,  3.73220000E-05,
                      -3.79285000E-08,  1.31773000E-11, -1.43792000E+04,
                       6.02798000E-01]),
                NASA([1000.00, 6000.00],
                     [ 3.16953000E+00,  6.19321000E-03, -2.25056000E-06,
                       3.65976000E-10, -2.20149000E-14, -1.45487000E+04,
                       6.04208000E+00])),
        transport=gas_transport(geom='nonlinear',
                                diam=3.59,
                                well_depth=498.0,
                                rot_relax=2.0))

species(name='CH4(10)',
        atoms='C:1 H:4',
        thermo=(NASA([200.00, 1000.00],
                     [ 5.14826000E+00, -1.37002000E-02,  4.93749000E-05,
                      -4.91952000E-08,  1.70097000E-11, -1.02453000E+04,
                      -4.63323000E+00]),
                NASA([1000.00, 6000.00],
                     [ 1.91179000E+00,  9.60268000E-03, -3.38388000E-06,
                       5.38797000E-10, -3.19307000E-14, -1.00992000E+04,
                       8.48242000E+00])),
        transport=gas_transport(geom='nonlinear',
                                diam=3.746,
                                well_depth=141.4,
                                polar=2.6,
                                rot_relax=13.0))

species(name='C2H4(11)',
        atoms='C:2 H:4',
        thermo=(NASA([200.00, 1000.00],
                     [ 3.95920000E+00, -7.57051000E-03,  5.70990000E-05,
                      -6.91588000E-08,  2.69884000E-11,  5.08978000E+03,
                       4.09730000E+00]),
                NASA([1000.00, 6000.00],
                     [ 3.99183000E+00,  1.04834000E-02, -3.71721000E-06,
                       5.94628000E-10, -3.53630000E-14,  4.26866000E+03,
                      -2.69082000E-01])),
        transport=gas_transport(geom='nonlinear',
                                diam=3.971,
                                well_depth=280.8,
                                rot_relax=1.5))

species(name='C3H6(12)',
        atoms='C:3 H:6',
        thermo=(NASA([200.00, 1000.00],
                     [ 3.83464000E+00,  3.29079000E-03,  5.05228000E-05,
                      -6.66251000E-08,  2.63707000E-11,  7.88717000E+02,
                       7.53408000E+00]),
                NASA([1000.00, 6000.00],
                     [ 6.03870000E+00,  1.62964000E-02, -5.82131000E-06,
                       9.35937000E-10, -5.58603000E-14, -7.41715000E+02,
                      -8.43826000E+00])),
        transport=gas_transport(geom='nonlinear',
                                diam=4.982,
                                well_depth=266.801,
                                rot_relax=1.0))

species(name='H2(13)',
        atoms='H:2',
        thermo=(NASA([100.00, 1962.86],
                     [ 3.42253780E+00,  2.86646024E-04, -4.14662326E-07,
                       4.27541429E-10, -9.38102659E-14, -1.02978492E+03,
                      -3.86364902E+00]),
                NASA([1962.86, 5000.00],
                     [ 2.74214292E+00,  5.79597460E-04,  1.97175640E-07,
                      -6.41040149E-11,  4.95963521E-15, -5.52011412E+02,
                       4.14362224E-01])),
        transport=gas_transport(geom='linear',
                                diam=2.833,
                                well_depth=59.7))

species(name='H(14)',
        atoms='H:1',
        thermo=(NASA([100.00, 4383.16],
                     [ 2.50000000E+00, -2.38914167E-13,  3.12709494E-16,
                      -1.33367320E-19,  1.74989654E-23,  2.54727081E+04,
                      -4.59566247E-01]),
                NASA([4383.16, 5000.00],
                     [ 2.50003447E+00, -3.04996987E-08,  1.01101187E-11,
                      -1.48796738E-15,  8.20356170E-20,  2.54726770E+04,
                      -4.59784534E-01])),
        transport=gas_transport(geom='atom',
                                diam=2.05,
                                well_depth=145.0))

species(name='OH(15)',
        atoms='H:1 O:1',
        thermo=(NASA([100.00, 1005.24],
                     [ 3.48579318E+00,  1.33399885E-03, -4.70054183E-06,
                       5.64393447E-09, -2.06323747E-12,  3.41195714E+03,
                       1.99788624E+00]),
                NASA([1005.24, 5000.00],
                     [ 2.88226356E+00,  1.03866921E-03, -2.35641168E-07,
                       1.40204240E-11,  6.34789746E-16,  3.66955542E+03,
                       5.59047041E+00])),
        transport=gas_transport(geom='linear',
                                diam=2.75,
                                well_depth=80.0))

species(name='He(16)',
        atoms='He:1',
        thermo=(NASA([100.00, 4383.16],
                     [ 2.50000000E+00, -2.38914167E-13,  3.12709494E-16,
                      -1.33367320E-19,  1.74989654E-23, -7.45000000E+02,
                       9.14221530E-01]),
                NASA([4383.16, 5000.00],
                     [ 2.50003447E+00, -3.04996987E-08,  1.01101187E-11,
                      -1.48796738E-15,  8.20356170E-20, -7.45031138E+02,
                       9.14003242E-01])),
        transport=gas_transport(geom='atom',
                                diam=2.576,
                                well_depth=10.2))

species(name='HO2(17)',
        atoms='H:1 O:2',
        thermo=(NASA([100.00, 923.90],
                     [ 4.02957107E+00, -2.63998930E-03,  1.52235427E-05,
                      -1.71678543E-08,  6.26771070E-12,  3.22676805E+02,
                       4.84424037E+00]),
                NASA([923.90, 5000.00],
                     [ 4.15129967E+00,  1.91151750E-03, -4.11307832E-07,
                       6.35037514E-11, -4.86452298E-15,  8.34341022E+01,
                       3.09359133E+00])),
        transport=gas_transport(geom='nonlinear',
                                diam=3.458,
                                well_depth=107.4,
                                rot_relax=1.0))

species(name='H2O2(18)',
        atoms='H:2 O:2',
        thermo=(NASA([100.00, 923.28],
                     [ 3.72866085E+00,  4.13388982E-03,  5.67454130E-06,
                      -1.01859637E-08,  4.28584486E-12, -1.76963955E+04,
                       5.35914855E+00]),
                NASA([923.28, 5000.00],
                     [ 4.95154573E+00,  3.54224941E-03, -1.01037852E-06,
                       1.61935079E-10, -1.10203774E-14, -1.81228053E+04,
                      -1.52927478E+00])),
        transport=gas_transport(geom='nonlinear',
                                diam=4.196,
                                well_depth=289.3))

species(name='HOCO(19)',
        atoms='C:1 H:1 O:2',
        thermo=(NASA([200.00, 998.40],
                     [ 2.82191000E+00,  9.66218000E-03, -2.78560000E-06,
                      -4.12692000E-09,  2.61472000E-12, -2.35465000E+04,
                       1.14285000E+01]),
                NASA([998.40, 3000.00],
                     [ 4.63989000E+00,  5.66363000E-03, -2.67855000E-06,
                       6.17049000E-10, -5.60954000E-14, -2.40527000E+04,
                       1.90175000E+00])),
        transport=gas_transport(geom='nonlinear',
                                diam=3.59,
                                well_depth=498.0,
                                rot_relax=2.0))

species(name='HCO(20)',
        atoms='C:1 H:1 O:1',
        thermo=(NASA([200.00, 1000.00],
                     [ 4.23755000E+00, -3.32075000E-03,  1.40030000E-05,
                      -1.34240000E-08,  4.37416000E-12,  3.87241000E+03,
                       3.30835000E+00]),
                NASA([1000.00, 6000.00],
                     [ 3.92002000E+00,  2.52279000E-03, -6.71004000E-07,
                       1.05616000E-10, -7.43798000E-15,  3.65343000E+03,
                       3.58077000E+00])),
        transport=gas_transport(geom='nonlinear',
                                diam=3.59,
                                well_depth=498.0))

species(name='CH3(21)',
        atoms='C:1 H:3',
        thermo=(NASA([200.00, 1000.00],
                     [ 3.65718000E+00,  2.12660000E-03,  5.45839000E-06,
                      -6.61810000E-09,  2.46571000E-12,  1.64227000E+04,
                       1.67354000E+00]),
                NASA([1000.00, 6000.00],
                     [ 2.97812000E+00,  5.79785000E-03, -1.97558000E-06,
                       3.07298000E-10, -1.79174000E-14,  1.65095000E+04,
                       4.72248000E+00])),
        transport=gas_transport(geom='nonlinear',
                                diam=3.8,
                                well_depth=144.0))

species(name='CH2(22)',
        atoms='C:1 H:2',
        thermo=(NASA([200.00, 1000.00],
                     [ 3.83280000E+00,  2.24446000E-04,  4.68033000E-06,
                      -6.04743000E-09,  2.59009000E-12,  4.59208000E+04,
                       1.40666000E+00]),
                NASA([1000.00, 3000.00],
                     [ 3.16229000E+00,  2.81798000E-03, -7.56235000E-07,
                       5.05446000E-11,  5.65236000E-15,  4.60991000E+04,
                       4.77656000E+00])),
        transport=gas_transport(geom='nonlinear',
                                diam=3.8,
                                well_depth=144.0))

species(name='CH3OH(23)',
        atoms='C:1 H:4 O:1',
        thermo=(NASA([200.00, 1000.00],
                     [ 5.65851000E+00, -1.62983000E-02,  6.91938000E-05,
                      -7.58373000E-08,  2.80428000E-11, -2.56120000E+04,
                      -8.97331000E-01]),
                NASA([1000.00, 6000.00],
                     [ 3.52727000E+00,  1.03179000E-02, -3.62893000E-06,
                       5.77448000E-10, -3.42183000E-14, -2.60029000E+04,
                       5.16759000E+00])),
        transport=gas_transport(geom='nonlinear',
                                diam=3.626,
                                well_depth=481.8,
                                rot_relax=1.0))

species(name='CH2(S)(24)',
        atoms='C:1 H:2',
        thermo=(NASA([200.00, 1000.00],
                     [ 4.19195000E+00, -2.30793000E-03,  8.05090000E-06,
                      -6.60123000E-09,  1.95638000E-12,  5.04843000E+04,
                      -7.54589000E-01]),
                NASA([1000.00, 3000.00],
                     [ 2.28556000E+00,  4.60255000E-03, -1.97412000E-06,
                       4.09548000E-10, -3.34695000E-14,  5.09224000E+04,
                       8.67684000E+00])),
        transport=gas_transport(geom='nonlinear',
                                diam=3.8,
                                well_depth=144.0))

species(name='CH2OH(25)',
        atoms='C:1 H:3 O:1',
        thermo=(NASA([200.00, 1000.00],
                     [ 4.47834000E+00, -1.35070000E-03,  2.78485000E-05,
                      -3.64869000E-08,  1.47907000E-11, -3.50073000E+03,
                       3.30913000E+00]),
                NASA([1000.00, 6000.00],
                     [ 5.09314000E+00,  5.94761000E-03, -2.06497000E-06,
                       3.23008000E-10, -1.88126000E-14, -4.03410000E+03,
                      -1.84691000E+00])),
        transport=gas_transport(geom='nonlinear',
                                diam=3.69,
                                well_depth=417.0,
                                dipole=1.7,
                                rot_relax=2.0))

species(name='CH3O(26)',
        atoms='C:1 H:3 O:1',
        thermo=(NASA([200.00, 1000.00],
                     [ 3.71181000E+00, -2.80463000E-03,  3.76551000E-05,
                      -4.73072000E-08,  1.86588000E-11,  1.29570000E+03,
                       6.57241000E+00]),
                NASA([1000.00, 6000.00],
                     [ 4.75779000E+00,  7.44142000E-03, -2.69705000E-06,
                       4.38091000E-10, -2.63537000E-14,  3.78112000E+02,
                      -1.96680000E+00])),
        transport=gas_transport(geom='nonlinear',
                                diam=3.69,
                                well_depth=417.0,
                                dipole=1.7,
                                rot_relax=2.0))

species(name='HCOH(27)',
        atoms='C:1 H:2 O:1',
        thermo=(NASA([200.00, 1000.00],
                     [ 4.65733000E+00, -9.53742000E-03,  4.04679000E-05,
                      -4.45318000E-08,  1.64762000E-11,  1.38615000E+04,
                       1.97861000E+00]),
                NASA([1000.00, 6000.00],
                     [ 3.65237000E+00,  5.55807000E-03, -1.97617000E-06,
                       3.16823000E-10, -1.88748000E-14,  1.35536000E+04,
                       4.22141000E+00])),
        transport=gas_transport(geom='nonlinear',
                                diam=4.443,
                                well_depth=110.7))

species(name='CH3OO(28)',
        atoms='C:1 H:3 O:2',
        thermo=(NASA([298.00, 1000.00],
                     [ 2.93065000E+00,  8.68504000E-03,  8.80315000E-06,
                      -1.39561000E-08,  5.02940000E-12,  2.27483000E+02,
                       1.28755000E+01]),
                NASA([1000.00, 3000.00],
                     [ 2.88425000E+00,  1.40068000E-02, -6.88364000E-06,
                       1.63790000E-09, -1.53129000E-13, -2.00433000E+01,
                       1.18153000E+01])),
        transport=gas_transport(geom='nonlinear',
                                diam=3.69,
                                well_depth=417.0,
                                dipole=1.7,
                                rot_relax=2.0))

species(name='CH2CO(29)',
        atoms='C:2 H:2 O:1',
        thermo=(NASA([200.00, 1000.00],
                     [ 2.13241000E+00,  1.81319000E-02, -1.74093000E-05,
                       9.35336000E-09, -2.01725000E-12, -7.14809000E+03,
                       1.33808000E+01]),
                NASA([1000.00, 6000.00],
                     [ 5.75871000E+00,  6.35124000E-03, -2.25955000E-06,
                       3.62322000E-10, -2.15856000E-14, -8.08533000E+03,
                      -4.96490000E+00])),
        transport=gas_transport(geom='nonlinear',
                                diam=3.97,
                                well_depth=436.0,
                                rot_relax=2.0))

species(name='C2H5(30)',
        atoms='C:2 H:5',
        thermo=(NASA([200.00, 1000.00],
                     [ 4.24186000E+00, -3.56905000E-03,  4.82667000E-05,
                      -5.85401000E-08,  2.25805000E-11,  1.29690000E+04,
                       4.44704000E+00]),
                NASA([1000.00, 6000.00],
                     [ 4.32196000E+00,  1.23931000E-02, -4.39681000E-06,
                       7.03520000E-10, -4.18435000E-14,  1.21759000E+04,
                       1.71104000E-01])),
        transport=gas_transport(geom='nonlinear',
                                diam=4.302,
                                well_depth=252.3,
                                rot_relax=1.5))

species(name='C2H3(31)',
        atoms='C:2 H:3',
        thermo=(NASA([200.00, 1000.00],
                     [ 3.36378000E+00,  2.65766000E-04,  2.79621000E-05,
                      -3.72987000E-08,  1.51590000E-11,  3.44750000E+04,
                       7.91510000E+00]),
                NASA([1000.00, 6000.00],
                     [ 4.15027000E+00,  7.54021000E-03, -2.62998000E-06,
                       4.15974000E-10, -2.45408000E-14,  3.38566000E+04,
                       1.72812000E+00])),
        transport=gas_transport(geom='nonlinear',
                                diam=4.1,
                                well_depth=209.0,
                                rot_relax=1.0))

species(name='C(32)',
        atoms='C:1',
        thermo=(NASA([200.00, 1000.00],
                     [ 2.49975000E+00,  5.02139000E-07,  1.93093000E-09,
                      -4.94633000E-12,  2.74089000E-15,  8.54858000E+04,
                       3.66241000E+00]),
                NASA([1000.00, 3000.00],
                     [ 2.49891000E+00,  2.41252000E-06, -1.88942000E-09,
                       6.24309000E-13, -7.45464000E-17,  8.54862000E+04,
                       3.66710000E+00])),
        transport=gas_transport(geom='atom',