#---------------------------------------------------------------------------
#  CTI file converted from solution object
#---------------------------------------------------------------------------

units(length = "cm", time = "s", quantity = "mol", act_energy = "cal/mol")

ideal_gas(name = "reduced_283", 
     elements = "N Ar C H O", 
     species = """ N2 Ar nC10H22(1) O2(2) CH(3) O(5) CO(6) CO2(7) H2O(8)
                   CH2O(9) CH4(10) C2H4(11) C3H6(12)
                   H2(13) C5H11(15) C4H9(16) C7H15(17)
                   C4H8(19) C6H12(20) C6H13(21) CHO(22)
                   C2H6(23) C5H1O(24) C4H6(29) S(30)
                   S(31) S(32) H2O2(34) HO2(35) H(36)
                   CH3(37) C2H5(38) CH3OH(39) CH2OH(40)
                   CH3O(41) C2H2(42) HCCO(43) C2H3(44)
                   CH2CO(45) C3H5(46) C3H7(47) C3H4(48)
                   C10H21(50) C10H20(51) OH(52) C(53)
                   CH2(54) C3H3(56) C2O(57) H2CC(58)
                   iC4H3(62) pC3H4(63) C3H5(64)
                   C3H5(65) C4H4(66) C4H6(67)
                   CH2CHO(68) C3H4O(69) nC4H5(70)
                   iC4H5(71) CH3CHO(72) CH3CO(73)
                   nC3H7(76) C3H8(78) C4H81(79)
                   C4H612(80) C5H5(81) lC5H7(86)
                   C3H6O(89) H2C4O(91) C4H5O(96)
                   C5H6(98) pC4H9(106) C5H4O(120)
                   C5H5O(121) C5H5O(122) C5H5O(123)
                   C4H5(125) C5H9(126) C5H8(127)
                   C5H10(128) cC5H8(130) C5H9(131)
                   C5H8(132) C5H9(134) C5H11(135)
                   C5H11(136) C5H12(137) C6H11(138)
                   C6H10(139) C6H12(140) C6H11(143)
                   C6H13(144) C6H13(145) C7H14(148)
                   C7H15(149) C7H15(150) C7H15(151)
                   C8H15(153) C8H16(154) C8H17(155)
                   C8H17(157) C8H17(158) C9H17(160)
                   C9H18(161) C9H19(162) C9H19(163)
                   C9H19(165) C9H19(166) S(169) S(170)
                   S(171) S(172) S(173) S(200)
                   C7H13(202) S(224) C8H15(231) S(232)
                   C7H12(233) C6H10(237) C7H12(238)
                   C8H14(239) C9H17(253) C7H13(263)
                   C6H10(271) C8H15(288) C6H11(291)
                   C8H15(294) C7H13(317) C5H8(323)
                   CH*(350) HOCO(352) HCOH(353)
                   CH3OO(354) CH4O2(355) CH3O2(356)
                   C2H5O(357) S(358) C2H4O(359)
                   C2H5O(360) S(361) S(362) C2H6O(367)
                   HOCHO(370) S(371) S(373) S(374)
                   OCHO(377) S(406) S(475) S(495)
                   C5H7(590) S(676) S(683) S(684)
                   S(694) S(699) S(712) S(763) S(1074)
                   S(1080) S(1164) S(1165) S(1166)
                   S(1174) S(1309) S(1312) S(1342)
                   S(1343) S(1346) S(1350) S(1355)
                   S(1359) S(1360) S(1532) S(1533)
                   S(1534) S(1537) S(1540) S(1567)
                   S(1571) S(1574) S(1598) S(1599)
                   S(1601) S(1606) S(1803) S(1804)
                   S(1805) S(1806) S(1808) S(1810)
                   S(1884) S(1909) S(1911) S(1936)
                   S(1939) S(1941) S(1946) S(1948)
                   S(1989) S(2382) S(2551) S(2554)
                   S(2635) S(2706) S(2709) S(2720)
                   S(2806) S(2993) S(3031) S(3049)
                   S(3086) S(3218) S(3221) S(3225)
                   S(3236) S(3266) S(3270) S(3890)
                   S(4026) S(4045) S(4178) S(5468)
                   S(5645) S(5694) S(5704) O2(5707)
                   S(6626) S(7084) S(8818) S(10690)
                   S(16424) S(16611) S(16904) S(16972)
                   S(16993) S(17002) S(17026) S(17027)
                   S(17028) S(17044) S(17121) S(17173)
                   S(17195) S(17196) S(17333) S(17475)
                   S(17632) S(17720) S(17985) S(18085)
                   S(18139) S(18191) S(18595) S(18805)
                   S(18946) S(18952) S(18953) S(18973)
                   S(18976) S(18977) S(19065) S(19101)
                   S(19213) S(19259) S(19279) S(19287)
                   S(19342) S(19407) S(19571) S(19601)
                   S(19604) S(19825) S(19872) S(19902)
                   S(20017) S(20201) S(20278) S(20309)
                   S(20394) S(20421) """, 
     reactions = "all", 
     initial_state = state(temperature = 300.0, pressure = 101324.99999999994)   )

#---------------------------------------------------------------------------
#  Species data
#---------------------------------------------------------------------------

species(name = "N2",
    atoms = "N:2", 
    thermo = (
       NASA(   [100.0, 1817.04], [3.612625890e+00, -1.008930590e-03,
                2.498986020e-06, -1.433757110e-09,
                2.586359520e-13, -1.051102880e+03,
                2.652703540e+00]  ),
       NASA(   [1817.04, 5000.0], [2.975897840e+00, 1.641415540e-03,
                -7.197243730e-07, 1.253781750e-10,
                -7.915301440e-15,
                -1.025841340e+03, 5.537591200e+00]  )
                ),
    transport = gas_transport(
                geom = "linear",
                diam = 3.621, 
                well_depth = 97.53, 
                polar = 1.76, 
                rot_relax = 4.0)
       )

species(name = "Ar",
    atoms = "Ar:1", 
    thermo = (
       NASA(   [100.0, 4383.16], [2.500000000e+00, -2.389141670e-13,
                3.127094940e-16, -1.333673200e-19,
                1.749896540e-23, -7.450000000e+02,
                4.366303630e+00]  ),
       NASA(   [4383.16, 5000.0], [2.500034470e+00, -3.049969870e-08,
                1.011011870e-11, -1.487967380e-15,
                8.203561700e-20, -7.450311380e+02,
                4.366085350e+00]  )
                ),
    transport = gas_transport(
                geom = "atom",
                diam = 3.3300000000000005, 
                well_depth = 136.501, 
                polar = 0.0, 
                rot_relax = 0.0)
       )

species(name = "nC10H22(1)",
    atoms = "C:10, H:22", 
    thermo = (
       NASA(   [100.0, 1753.74], [-1.875956410e+00, 1.205812800e-01,
                -7.399399980e-05, 2.286260720e-08,
                -2.908034070e-12,
                -3.429862990e+04, 4.348180400e+01]  ),
       NASA(   [1753.74, 5000.0], [2.275626450e+01, 6.439896100e-02,
                -2.594027960e-05, 4.595412730e-09,
                -3.039922220e-13,
                -4.293830610e+04,
                -8.919151520e+01]  )
                ),
    transport = gas_transport(
                geom = "nonlinear",
                diam = 7.303000000000001, 
                well_depth = 455.009, 
                polar = 0.0, 
                rot_relax = 0.0)
       )

species(name = "O2(2)",
    atoms = "O:2", 
    thermo = (
       NASA(   [100.0, 1087.7], [3.537637490e+00, -1.228282450e-03,
                5.367610930e-06, -4.931311470e-09,
                1.459563300e-12, -1.037990280e+03,
                4.671795790e+00]  ),
       NASA(   [1087.7, 5000.0], [3.164269040e+00, 1.694542470e-03,
                -8.003386630e-07, 1.590307420e-10,
                -1.148915850e-14,
                -1.048444000e+03, 6.083048430e+00]  )
                ),
    transport = gas_transport(
                geom = "linear",
                diam = 3.467, 
                well_depth = 106.7, 
                polar = 0.0, 
                rot_relax = 0.0)
       )

species(name = "CH(3)",
    atoms = "C:1, H:1", 
    thermo = (
       NASA(   [200.0, 1000.0], [3.471590000e+00, 4.047450000e-04,
                -1.893880000e-06, 3.332100000e-09,
                -1.512710000e-12, 7.070180000e+04,
                2.145420000e+00]  ),
       NASA(   [1000.0, 3000.0], [2.661950000e+00, 1.702450000e-03,
                -6.838240000e-07, 1.309800000e-10,
                -9.718430000e-15, 7.095890000e+04,
                6.526730000e+00]  )
                ),
    transport = gas_transport(
                geom = "linear",
                diam = 2.7500000000000004, 
                well_depth = 80.0, 
                polar = 0.0, 
                rot_relax = 0.0)
       )

species(name = "O(5)",
    atoms = "O:1", 
    thermo = (
       NASA(   [100.0, 4383.16], [2.500000000e+00, -2.389141670e-13,
                3.127094940e-16, -1.333673200e-19,
                1.749896540e-23, 2.922672160e+04,
                5.111067700e+00]  ),
       NASA(   [4383.16, 5000.0], [2.500034470e+00, -3.049969870e-08,
                1.011011870e-11, -1.487967380e-15,
                8.203561700e-20, 2.922669050e+04,
                5.110849420e+00]  )
                ),
    transport = gas_transport(
                geom = "atom",
                diam = 2.7500000000000004, 
                well_depth = 80.0, 
                polar = 0.0, 
                rot_relax = 0.0)
       )

species(name = "CO(6)",
    atoms = "C:1, O:1", 
    thermo = (
       NASA(   [100.0, 1669.92], [3.597097500e+00, -1.024245660e-03,
                2.833383320e-06, -1.758269450e-09,
                3.425919020e-13, -1.434318990e+04,
                3.458218580e+00]  ),
       NASA(   [1669.92, 5000.0], [2.927920290e+00, 1.819356330e-03,
                -8.353331530e-07, 1.512743530e-10,
                -9.889114100e-15,
                -1.429268890e+04, 6.511780120e+00]  )
                ),
    transport = gas_transport(
                geom = "linear",
                diam = 3.6900000000000004, 
                well_depth = 91.7, 
                polar = 1.76, 
                rot_relax = 4.0)
       )

species(name = "CO2(7)",
    atoms = "C:1, O:2", 
    thermo = (
       NASA(   [100.0, 988.19], [3.277895030e+00, 2.757914410e-03,
                7.127551890e-06, -1.078503610e-08,
                4.142095110e-12, -4.847560280e+04,
                5.978584910e+00]  ),
       NASA(   [988.19, 5000.0], [4.550741620e+00, 2.907233210e-03,
                -1.146402340e-06, 2.257909450e-10,
                -1.695206220e-14,
                -4.898602140e+04,
                -1.456783410e+00]  )
                ),
    transport = gas_transport(
                geom = "linear",
                diam = 3.9410000000000003, 
                well_depth = 195.201, 
                polar = 0.0, 
                rot_relax = 0.0)
       )

species(name = "H2O(8)",
    atoms = "H:2, O:1", 
    thermo = (
       NASA(   [100.0, 1281.42], [3.998820760e+00, -5.548381300e-04,
                2.767759940e-06, -1.556665240e-09,
                3.023348310e-13, -3.027455690e+04,
                -3.089709450e-02]  ),
       NASA(   [1281.42, 5000.0], [3.195609730e+00, 1.952389620e-03,
                -1.671121180e-07,
                -2.979530530e-11, 4.451513640e-15,
                -3.006870470e+04, 4.043311230e+00]  )
                ),
    transport = gas_transport(
                geom = "nonlinear",
                diam = 2.641, 
                well_depth = 809.102, 
                polar = 1.76, 
                rot_relax = 4.0)
       )

species(name = "CH2O(9)",
    atoms = "C:1, H:2, O:1", 
    thermo = (
       NASA(   [200.0, 1000.0], [4.793720000e+00, -9.908330000e-03,
                3.732200000e-05, -3.792850000e-08,
                1.317730000e-11, -1.437920000e+04,
                6.027980000e-01]  ),
       NASA(   [1000.0, 6000.0], [3.169530000e+00, 6.193210000e-03,
                -2.250560000e-06, 3.659760000e-10,
                -2.201490000e-14,
                -1.454870000e+04, 6.042080000e+00]  )
                ),
    transport = gas_transport(
                geom = "nonlinear",
                diam = 3.59, 
                well_depth = 498.002, 
                polar = 0.0, 
                rot_relax = 2.0)
       )

species(name = "CH4(10)",
    atoms = "C:1, H:4", 
    thermo = (
       NASA(   [200.0, 1000.0], [5.148260000e+00, -1.370020000e-02,
                4.937490000e-05, -4.919520000e-08,
                1.700970000e-11, -1.024530000e+04,
                -4.633230000e+00]  ),
       NASA(   [1000.0, 6000.0], [1.911790000e+00, 9.602680000e-03,
                -3.383880000e-06, 5.387970000e-10,
                -3.193070000e-14,
                -1.009920000e+04, 8.482420000e+00]  )
                ),
    transport = gas_transport(
                geom = "nonlinear",
                diam = 3.7460000000000004, 
                well_depth = 141.4, 
                polar = 2.6, 
                rot_relax = 13.0)
       )

species(name = "C2H4(11)",
    atoms = "C:2, H:4", 
    thermo = (
       NASA(   [200.0, 1000.0], [3.959200000e+00, -7.570510000e-03,
                5.709900000e-05, -6.915880000e-08,
                2.698840000e-11, 5.089780000e+03,
                4.097300000e+00]  ),
       NASA(   [1000.0, 6000.0], [3.991830000e+00, 1.048340000e-02,
                -3.717210000e-06, 5.946280000e-10,
                -3.536300000e-14, 4.268660000e+03,
                -2.690820000e-01]  )
                ),
    transport = gas_transport(
                geom = "nonlinear",
                diam = 3.971, 
                well_depth = 280.801, 
                polar = 0.0, 
                rot_relax = 1.5)
       )

species(name = "C3H6(12)",
    atoms = "C:3, H:6", 
    thermo = (
       NASA(   [200.0, 1000.0], [3.834640000e+00, 3.290790000e-03,
                5.052280000e-05, -6.662510000e-08,
                2.637070000e-11, 7.887170000e+02,
                7.534080000e+00]  ),
       NASA(   [1000.0, 6000.0], [6.038700000e+00, 1.629640000e-02,
                -5.821310000e-06, 9.359370000e-10,
                -5.586030000e-14,
                -7.417150000e+02,
                -8.438260000e+00]  )
                ),
    transport = gas_transport(
                geom = "nonlinear",
                diam = 4.982, 
                well_depth = 266.801, 
                polar = 0.0, 
                rot_relax = 1.0)
       )

species(name = "H2(13)",
    atoms = "H:2", 
    thermo = (
       NASA(   [100.0, 1962.85], [3.422537520e+00, 2.866484320e-04,
                -4.146677790e-07, 4.275457010e-10,
                -9.381132200e-14,
                -1.029784910e+03,
                -3.863647960e+00]  ),
       NASA(   [1962.85, 5000.0], [2.742172260e+00, 5.795593820e-04,
                1.971934540e-07, -6.410758800e-11,
                4.959895510e-15, -5.520287370e+02,
                4.141883160e-01]  )
                ),
    transport = gas_transport(
                geom = "linear",
                diam = 2.8330000000000006, 
                well_depth = 59.7, 
                polar = 0.0, 
                rot_relax = 0.0)
       )

species(name = "C5H11(15)",
    atoms = "C:5, H:11", 
    thermo = (
       NASA(   [200.0, 1395.0], [8.176890000e-01, 4.926540000e-02,
                -2.137860000e-05, 1.855320000e-09,
                7.062590000e-13, 3.262210000e+03,
                2.658760000e+01]  ),
       NASA(   [1395.0, 5000.0], [1.471770000e+01, 2.416680000e-02,
                -8.186480000e-06, 1.262720000e-09,
                -7.292680000e-14,
                -2.260280000e+03,
                -5.060710000e+01]  )
                ),
    transport = gas_transport(
                geom = "nonlinear",
                diam = 5.734, 
                well_depth = 367.022, 
                polar = 0.0, 
                rot_relax = 0.0)
       )

species(name = "C4H9(16)",
    atoms = "C:4, H:9", 
    thermo = (
       NASA(   [200.0, 1388.0], [6.236040000e-01, 3.992900000e-02,
                -1.895970000e-05, 3.459380000e-09,
                -2.392360000e-14, 6.176890000e+03,
                2.527380000e+01]  ),
       NASA(   [1388.0, 5000.0], [1.113700000e+01, 2.040390000e-02,
                -6.975710000e-06, 1.082450000e-09,
                -6.277150000e-14, 1.955910000e+03,
                -3.308560000e+01]  )
                ),
    transport = gas_transport(
                geom = "nonlinear",
                diam = 5.176, 
                well_depth = 357.002, 
                polar = 0.0, 
                rot_relax = 1.0)
       )

species(name = "C7H15(17)",
    atoms = "C:7, H:15", 
    thermo = (
       NASA(   [100.0, 2507.43], [8.696296800e-01, 7.037177900e-02,
                -3.498346610e-05, 7.979875580e-09,
                -7.119742270e-13,
                -2.437924300e+03, 3.013513490e+01]  ),
       NASA(   [2507.43, 5000.0], [2.368257270e+01, 3.397942810e-02,
                -1.321287740e-05, 2.191619740e-09,
                -1.348669760e-13,
                -1.387835850e+04,
                -1.008952410e+02]  )
                ),
    transport = gas_transport(
                geom = "nonlinear",
                diam = 6.366, 
                well_depth = 402.997, 
                polar = 0.0, 
                rot_relax = 0.0)
       )

species(name = "C4H8(19)",
    atoms = "C:4, H:8", 
    thermo = (
       NASA(   [200.0, 1000.0], [5.572790000e+00, 3.765410000e-03,
                6.522270000e-05, -8.309100000e-08,
                3.203110000e-11, -3.601280000e+03,
                5.377970000e-01]  ),
       NASA(   [1000.0, 6000.0], [7.891150000e+00, 2.249710000e-02,
                -8.121440000e-06, 1.312740000e-09,
                -7.844520000e-14,
                -5.516430000e+03,
                -1.764360000e+01]  )
                ),
    transport = gas_transport(
                geom = "nonlinear",
                diam = 5.289, 
                well_depth = 359.053, 
                polar = 0.0, 
                rot_relax = 0.0)
       )

species(name = "C6H12(20)",
    atoms = "C:6, H:12", 
    thermo = (
       NASA(   [100.0, 1047.22], [1.276138900e+00, 4.860483260e-02,
                5.054762950e-06, -3.278368930e-08,
                1.374335010e-11, -8.935865150e+03,
                2.388293930e+01]  ),
       NASA(   [1047.22, 5000.0], [1.074878180e+01, 3.747263290e-02,
                -1.488059890e-05, 2.749309120e-09,
                -1.923942870e-13,
                -1.229341600e+04,
                -2.881230290e+01]  )
                ),
    transport = gas_transport(
                geom = "nonlinear",
                diam = 5.925, 
                well_depth = 395.365, 
                polar = 0.0, 
                rot_relax = 0.0)
       )

species(name = "C6H13(21)",
    atoms = "C:6, H:13", 
    thermo = (
       NASA(   [100.0, 2003.81], [1.336863480e+00, 5.732443850e-02,
                -2.587380810e-05, 4.742831770e-09,
                -2.390179410e-13, 4.088390980e+02,
                2.624418010e+01]  ),
       NASA(   [2003.81, 5000.0], [1.707447100e+01, 3.292731520e-02,
                -1.286443530e-05, 2.162516910e-09,
                -1.351637330e-13,
                -7.307197240e+03,
                -6.413491540e+01]  )
                ),
    transport = gas_transport(
                geom = "nonlinear",
                diam = 6.051, 
                well_depth = 385.187, 
                polar = 0.0, 
                rot_relax = 0.0)
       )

species(name = "CHO(22)",
    atoms = "C:1, H:1, O:1", 
    thermo = (
       NASA(   [200.0, 1000.0], [4.237550000e+00, -3.320750000e-03,
                1.400300000e-05, -1.342400000e-08,
                4.374160000e-12, 3.872410000e+03,
                3.308350000e+00]  ),
       NASA(   [1000.0, 6000.0], [3.920020000e+00, 2.522790000e-03,
                -6.710040000e-07, 1.056160000e-10,
                -7.437980000e-15, 3.653430000e+03,
                3.580770000e+00]  )
                ),
    transport = gas_transport(
                geom = "nonlinear",
                diam = 3.59, 
                well_depth = 498.002, 
                polar = 0.0, 
                rot_relax = 0.0)
       )

species(name = "C2H6(23)",
    atoms = "C:2, H:6", 
    thermo = (
       NASA(   [200.0, 1000.0], [4.291430000e+00, -5.501550000e-03,
                5.994380000e-05, -7.084660000e-08,
                2.686860000e-11, -1.152220000e+04,
                2.666790000e+00]  ),
       NASA(   [1000.0, 6000.0], [4.046660000e+00, 1.535390000e-02,
                -5.470390000e-06, 8.778270000e-10,
                -5.231680000e-14,
                -1.244730000e+04,
                -9.686980000e-01]  )
                ),
    transport = gas_transport(
                geom = "nonlinear",
                diam = 4.302, 
                well_depth = 252.30099999999996, 
                polar = 0.0, 
                rot_relax = 1.5)
       )

species(name = "C5H1O(24)",
    atoms = "C:5, H:10", 
    thermo = (
       NASA(   [200.0, 1385.0], [5.905290000e-01, 4.852750000e-02,
                -2.432320000e-05, 4.860960000e-09,
                -1.130990000e-13,
                -5.997780000e+03, 2.418160000e+01]  ),
       NASA(   [1385.0, 5000.0], [1.394260000e+01, 2.287350000e-02,
                -7.778000000e-06, 1.202850000e-09,
                -6.959720000e-14,
                -1.121660000e+04,
                -4.953800000e+01]  )
                ),
    transport = gas_transport(
                geom = "nonlinear",
                diam = 5.608, 
                well_depth = 377.434, 
                polar = 0.0, 
                rot_relax = 0.0)
       )

species(name = "C4H6(29)",
    atoms = "C:8, H:16", 
    thermo = (
       NASA(   [100.0, 1159.55], [-2.620301450e-01, 8.094112850e-02,
                -3.172456310e-05,
                -5.785563380e-09, 5.241532510e-12,
                -1.459982010e+04, 3.459529000e+01]  ),
       NASA(   [1159.55, 5000.0], [1.468100950e+01, 5.085544230e-02,
                -2.056919930e-05, 3.763263550e-09,
                -2.587494210e-13,
                -1.950809360e+04,
                -4.592983520e+01]  )
                ),
    transport = gas_transport(
                geom = "nonlinear",
                diam = 6.553, 
                well_depth = 430.21, 
                polar = 0.0, 
                rot_relax = 0.0)
       )

species(name = "S(30)",
    atoms = "C:10, H:21, O:2", 
    thermo = (
       NASA(   [100.0, 1048.84], [-2.136287200e+00, 1.433128280e-01,
                -1.194182690e-04, 5.862725660e-08,
                -1.273338090e-11,
                -2.664323460e+04, 4.934164560e+01]  ),
       NASA(   [1048.84, 5000.0], [1.264834740e+01, 8.692796200e-02,
                -3.877914910e-05, 7.371047470e-09,
                -5.159903700e-13,
                -2.974456920e+04,
                -2.269063130e+01]  )
                ),
    transport = gas_transport(
                geom = "nonlinear",
                diam = 8.217, 
                well_depth = 540.319, 
                polar = 0.0, 
                rot_relax = 0.0)
       )

species(name = "S(31)",
    atoms = "C:10, H:21, O:2", 
    thermo = (
       NASA(   [100.0, 840.68], [-2.213491870e+00, 1.478604350e-01,
                -1.389700660e-04, 8.420878000e-08,
                -2.315412960e-11,
                -2.153722280e+04, 5.144438970e+01]  ),
       NASA(   [840.68, 5000.0], [9.058827110e+00, 9.422564010e-02,
                -4.327021720e-05, 8.317241390e-09,
                -5.854197830e-13,
                -2.343248760e+04,
                -9.816819320e-01]  )
                ),
    transport = gas_transport(
                geom = "nonlinear",
                diam = 8.217, 
                well_depth = 540.319, 
                polar = 0.0, 
                rot_relax = 0.0)
       )

species(name = "S(32)",
    atoms = "C:10, H:21, O:4", 
    thermo = (
       NASA(   [100.0, 902.87], [-3.551704630e+00, 1.776629650e-01,
                -1.832825450e-04, 1.119626500e-07,
                -2.930291690e-11,
                -3.873847520e+04, 5.756168630e+01]  ),
       NASA(   [902.87, 5000.0], [1.553758880e+01, 9.309337810e-02,
                -4.278464330e-05, 8.223438250e-09,
                -5.787580450e-13,
                -4.218558790e+04,
                -3.258309630e+01]  )
                ),
    transport = gas_transport(
                geom = "nonlinear",
                diam = 9.165, 
                well_depth = 630.413, 
                polar = 0.0, 
                rot_relax = 0.0)
       )

species(name = "H2O2(34)",
    atoms = "H:2, O:2", 
    thermo = (
       NASA(   [100.0, 923.27], [3.728672000e+00, 4.133751150e-03,
                5.675060330e-06, -1.018668670e-08,
                4.286176110e-12, -1.769639600e+04,
                5.359109020e+00]  ),
       NASA(   [923.27, 5000.0], [4.951512910e+00, 3.542306700e-03,
                -1.010412180e-06, 1.619431380e-10,
                -1.102105250e-14,
                -1.812279200e+04,
                -1.529090920e+00]  )
                ),
    transport = gas_transport(
                geom = "nonlinear",
                diam = 4.196, 
                well_depth = 289.3, 
                polar = 0.0, 
                rot_relax = 0.0)
       )

species(name = "HO2(35)",
    atoms = "H:1, O:2", 
    thermo = (
       NASA(   [100.0, 923.91], [4.029559770e+00, -2.639848920e-03,
                1.522301750e-05, -1.716712310e-08,
                6.267375890e-12, 3.226772850e+02,
                4.844280400e+00]  ),
       NASA(   [923.91, 5000.0], [4.151333000e+00, 1.911459340e-03,
                -4.112736670e-07, 6.349557240e-11,
                -4.863837790e-15, 8.342056480e+01,
                3.093404620e+00]  )
                ),
    transport = gas_transport(
                geom = "nonlinear",
                diam = 3.458, 
                well_depth = 107.4, 
                polar = 0.0, 
                rot_relax = 1.0)
       )

species(name = "H(36)",
    atoms = "H:1", 
    thermo = (
       NASA(   [100.0, 4383.16], [2.500000000e+00, -2.389141670e-13,
                3.127094940e-16, -1.333673200e-19,
                1.749896540e-23, 2.547270810e+04,
                -4.595662470e-01]  ),
       NASA(   [4383.16, 5000.0], [2.500034470e+00, -3.049969870e-08,
                1.011011870e-11, -1.487967380e-15,
                8.203561700e-20, 2.547267700e+04,
                -4.597845340e-01]  )
                ),
    transport = gas_transport(
                geom = "atom",
                diam = 2.05, 
                well_depth = 145.0, 
                polar = 0.0, 
                rot_relax = 0.0)
       )

species(name = "CH3(37)",
    atoms = "C:1, H:3", 
    thermo = (
       NASA(   [200.0, 1000.0], [3.657180000e+00, 2.126600000e-03,
                5.458390000e-06, -6.618100000e-09,
                2.465710000e-12, 1.642270000e+04,
                1.673540000e+00]  ),
       NASA(   [1000.0, 6000.0], [2.978120000e+00, 5.797850000e-03,
                -1.975580000e-06, 3.072980000e-10,
                -1.791740000e-14, 1.650950000e+04,
                4.722480000e+00]  )
                ),
    transport = gas_transport(
                geom = "nonlinear",
                diam = 3.8, 
                well_depth = 144.001, 
                polar = 0.0, 
                rot_relax = 0.0)
       )

species(name = "C2H5(38)",
    atoms = "C:2, H:5", 
    thermo = (
       NASA(   [200.0, 1000.0], [4.241860000e+00, -3.569050000e-03,
                4.826670000e-05, -5.854010000e-08,
                2.258050000e-11, 1.296900000e+04,
                4.447040000e+00]  ),
       NASA(   [1000.0, 6000.0], [4.321960000e+00, 1.239310000e-02,
                -4.396810000e-06, 7.035200000e-10,
                -4.184350000e-14, 1.217590000e+04,
                1.711040000e-01]  )
                ),
    transport = gas_transport(
                geom = "nonlinear",
                diam = 4.302, 
                well_depth = 252.30099999999996, 
                polar = 0.0, 
                rot_relax = 1.5)
       )

species(name = "CH3OH(39)",
    atoms = "C:1, H:4, O:1", 
    thermo = (
       NASA(   [200.0, 1000.0], [5.658510000e+00, -1.629830000e-02,
                6.919380000e-05, -7.583730000e-08,
                2.804280000e-11, -2.561200000e+04,
                -8.973310000e-01]  ),
       NASA(   [1000.0, 6000.0], [3.527270000e+00, 1.031790000e-02,
                -3.628930000e-06, 5.774480000e-10,
                -3.421830000e-14,
                -2.600290000e+04, 5.167590000e+00]  )
                ),
    transport = gas_transport(
                geom = "nonlinear",
                diam = 3.6260000000000003, 
                well_depth = 481.802, 
                polar = 0.0, 
                rot_relax = 1.0)
       )

species(name = "CH2OH(40)",
    atoms = "C:1, H:3, O:1", 
    thermo = (
       NASA(   [200.0, 1000.0], [4.478340000e+00, -1.350700000e-03,
                2.784850000e-05, -3.648690000e-08,
                1.479070000e-11, -3.500730000e+03,
                3.309130000e+00]  ),
       NASA(   [1000.0, 6000.0], [5.093140000e+00, 5.947610000e-03,
                -2.064970000e-06, 3.230080000e-10,
                -1.881260000e-14,
                -4.034100000e+03,
                -1.846910000e+00]  )
                ),
    transport = gas_transport(
                geom = "nonlinear",
                diam = 3.6900000000000004, 
                well_depth = 417.002, 
                polar = 0.0, 
                rot_relax = 2.0, 
                dipole= 1.7000004851748343)
       )

species(name = "CH3O(41)",
    atoms = "C:1, H:3, O:1", 
    thermo = (
       NASA(   [200.0, 1000.0], [3.711810000e+00, -2.804630000e-03,
                3.765510000e-05, -4.730720000e-08,
                1.865880000e-11, 1.295700000e+03,
                6.572410000e+00]  ),
       NASA(   [1000.0, 6000.0], [4.757790000e+00, 7.441420000e-03,
                -2.697050000e-06, 4.380910000e-10,
                -2.635370000e-14, 3.781120000e+02,
                -1.966800000e+00]  )
                ),
    transport = gas_transport(
                geom = "nonlinear",
                diam = 3.6900000000000004, 
                well_depth = 417.002, 
                polar = 0.0, 
                rot_relax = 2.0, 
                dipole= 1.7000004851748343)
       )

species(name = "C2H2(42)",
    atoms = "C:2, H:2", 
    thermo = (