units(length='cm', time='s', quantity='mol', act_energy='kcal/mol')

ideal_gas(name='gas',
          elements="H D T C Ci O Oi N Ne Ar He Si S Cl X",
          species="""N2          Ar          Ne          nC10H22(1)
                     O2(2)       CH(3)       C2H(4)      O(5)
                     CO(6)       CO2(7)      H2O(8)      CH2O(9)
                     CH4(10)     C2H4(11)    C3H6(12)    H2(13)
                     iC4H8(14)   C5H11(15)   C4H9(16)    C7H15(17)
                     C7H14(18)   C4H8(19)    C6H12(20)   C6H13(21)
                     CHO(22)     C2H6(23)    C5H1O(24)   C6H6(26)
                     C6H5(27)    C4H6(28)    C4H6(29)    S(30)
                     S(31)       S(32)       S(33)       H2O2(34)
                     HO2(35)     H(36)       CH3(37)     C2H5(38)
                     CH3OH(39)   CH2OH(40)   CH3O(41)    C2H2(42)
                     HCCO(43)    C2H3(44)    CH2CO(45)   C3H5(46)
                     C3H7(47)    C3H4(48)    C6H11O(49)  C10H21(50)
                     C10H20(51)  OH(52)      C(53)       CH2(54)
                     CH2*(55)    C3H3(56)    C2O(57)     H2CC(58)
                     HCCOH(59)   C4H2(60)    nC4H3(61)   iC4H3(62)
                     pC3H4(63)   C3H5(64)    C3H5(65)    C4H4(66)
                     C4H6(67)    CH2CHO(68)  C3H4O(69)   nC4H5(70)
                     iC4H5(71)   CH3CHO(72)  CH3CO(73)   C2H4O(74)
                     CH2OCH(75)  nC3H7(76)   C4H7(77)    C3H8(78)
                     C4H81(79)   C4H612(80)  C5H5(81)    C7H7(82)
                     C7H8(83)    iC4H7(84)   cC3H4(85)   lC5H7(86)
                     C3H6O(87)   C3H3O(88)   C3H6O(89)   C3H6O(90)
                     H2C4O(91)   C6H2(92)    C6H3(93)    l-C6H4(94)
                     o-C6H4(95)  C4H5O(96)   C4H5-2(97)  C5H6(98)
                     C4H5O(99)   C4H6O(100)  C4H6O(101)  C4H6(102)
                     C4H6O(103)  C4H6O(104)  C4H4O(105)  pC4H9(106)
                     iC4H9(107)  C4H10(108)  C4H10(109)  tC4H9(110)
                     C7H7(111)   C7H7O(112)  C7H6O(113)  C7H8O(114)
                     C6H6O(115)  C6H5O(116)  C7H8O(117)  C7H5O(118)
                     S(119)      C5H4O(120)  C5H5O(121)  C5H5O(122)
                     C5H5O(123)  C5H6O(124)  C4H5(125)   C5H9(126)
                     C5H8(127)   C5H10(128)  cC5H9(129)  cC5H8(130)
                     C5H9(131)   C5H8(132)   C5H9(133)   C5H9(134)
                     C5H11(135)  C5H11(136)  C5H12(137)  C6H11(138)
                     C6H10(139)  C6H12(140)  C6H11(141)  C6H11(142)
                     C6H11(143)  C6H13(144)  C6H13(145)  C6H14(146)
                     C7H13(147)  C7H14(148)  C7H15(149)  C7H15(150)
                     C7H15(151)  C7H16(152)  C8H15(153)  C8H16(154)
                     C8H17(155)  C8H17(156)  C8H17(157)  C8H17(158)
                     C8H18(159)  C9H17(160)  C9H18(161)  C9H19(162)
                     C9H19(163)  C9H19(164)  C9H19(165)  C9H19(166)
                     C9H20(167)  S(168)      S(169)      S(170)
                     S(171)      S(172)      S(173)      S(174)
                     S(175)      S(176)      S(177)      S(178)
                     S(179)      S(180)      S(181)      S(182)
                     S(183)      S(184)      S(185)      S(186)
                     S(187)      S(188)      S(189)      S(190)
                     S(191)      S(192)      S(193)      S(194)
                     C9H17(195)  S(196)      C8H15(197)  C7H13(198)
                     C6H11(199)  S(200)      S(201)      C7H13(202)
                     C7H13(203)  C7H14(204)  S(205)      S(206)
                     S(207)      S(208)      S(209)      S(210)
                     S(211)      S(212)      C9H16(213)  C8H14(214)
                     S(215)      C7H12(216)  S(217)      C6H10(218)
                     S(219)      S(220)      S(221)      S(222)
                     S(223)      S(224)      C8H15(225)  S(226)
                     C8H15(227)  S(228)      C8H15(229)  S(230)
                     C8H15(231)  S(232)      C7H12(233)  S(234)
                     C8H15(235)  S(236)      C6H10(237)  C7H12(238)
                     C8H14(239)  C8H14(240)  C7H12(241)  C9H18(242)
                     C9H18(243)  C9H18(244)  C6H11(245)  C6H12(246)
                     C9H17(247)  C9H17(248)  C9H17(249)  C9H17(250)
                     C9H17(251)  C9H17(252)  C9H17(253)  C9H17(254)
                     C9H17(255)  C9H17(256)  C9H17(257)  C9H17(258)
                     C9H17(259)  C7H13(260)  C9H17(261)  C9H17(262)
                     C7H13(263)  C9H17(264)  C7H13(265)  C9H17(266)
                     C9H17(267)  C7H13(268)  C9H17(269)  C9H17(270)
                     C6H10(271)  C8H16(272)  C8H16(273)  C5H9(274)
                     C5H10(275)  C8H15(276)  C8H15(277)  C8H15(278)
                     C8H15(279)  C8H15(280)  C8H15(281)  C8H15(282)
                     C8H15(283)  C8H15(284)  C8H15(285)  C8H15(286)
                     C8H15(287)  C8H15(288)  C6H11(289)  C6H11(290)
                     C6H11(291)  C8H15(292)  C6H11(293)  C8H15(294)
                     C8H15(295)  C8H15(296)  C8H15(297)  C6H10(298)
                     C8H15(299)  C7H15(300)  C7H15(301)  C7H14(302)
                     C7H14(303)  C4H7(304)   C7H13(305)  C7H13(306)
                     C7H13(307)  C7H13(308)  C7H13(309)  C7H13(310)
                     C7H13(311)  C7H13(312)  C7H13(313)  C7H13(314)
                     C7H13(315)  C7H13(316)  C7H13(317)  C5H9(318)
                     C7H13(319)  C5H8(320)   C7H13(321)  C7H13(322)
                     C5H8(323)   C6H12(324)  S(325)      S(326)
                     S(327)      S(328)      C6H11(329)  C6H11(330)
                     C6H11(331)  C6H9(332)   C6H8(333)   C6H9(334)
                     C6H7(335)   C5H11(336)  C5H7(337)   S(338)
                     S(339)      S(340)      S(341)      S(342)
                     S(343)      S(344)      S(345)      S(346)
                     S(347)      S(348)      S(349)      CH*(350)
                     He(351)     HOCO(352)   HCOH(353)   CH3OO(354)
                     CH4O2(355)  CH3O2(356)  C2H5O(357)  S(358)
                     C2H4O(359)  C2H5O(360)  S(361)      S(362)
                     CHCHO(363)  S(364)      C2H3O(365)  C2(366)
                     C2H6O(367)  C2H5O(368)  S(369)      HOCHO(370)
                     S(371)      OCHCO(372)  S(373)      S(374)
                     S(375)      CH3O2(376)  OCHO(377)   S(378)
                     S(379)      S(406)      S(408)      S(413)
                     S(475)      C4H8O(490)  S(495)      S(496)
                     C5H7(590)   S(676)      S(678)      S(683)
                     S(684)      S(688)      S(694)      S(699)
                     S(712)      S(715)      S(763)      C4H6(922)
                     S(1074)     S(1080)     S(1164)     S(1165)
                     S(1166)     S(1174)     C5H9(1181)  S(1306)
                     S(1309)     S(1312)     S(1338)     S(1342)
                     S(1343)     S(1346)     S(1348)     S(1349)
                     S(1350)     S(1351)     S(1352)     S(1353)
                     S(1354)     S(1355)     S(1359)     S(1360)
                     S(1361)     S(1366)     C4H7(1376)  C5H8(1402)
                     S(1500)     S(1532)     S(1533)     S(1534)
                     S(1537)     S(1540)     S(1567)     S(1571)
                     S(1574)     S(1594)     S(1598)     S(1599)
                     S(1601)     S(1605)     S(1606)     S(1731)
                     S(1747)     S(1799)     S(1803)     S(1804)
                     S(1805)     S(1806)     S(1808)     S(1810)
                     S(1814)     S(1858)     S(1884)     S(1909)
                     S(1911)     S(1936)     S(1939)     S(1941)
                     S(1946)     S(1948)     S(1989)     S(2382)
                     S(2525)     S(2551)     S(2554)     S(2635)
                     S(2706)     S(2709)     S(2720)     S(2738)
                     S(2806)     S(2815)     S(2816)     S(2917)
                     S(2993)     S(3005)     S(3020)     S(3031)
                     S(3047)     S(3049)     S(3086)     S(3156)
                     S(3218)     S(3221)     S(3225)     S(3226)
                     S(3236)     S(3266)     S(3270)     S(3427)
                     S(3462)     S(3494)     S(3495)     S(3496)
                     S(3540)     S(3890)     S(3937)     S(3971)
                     S(3980)     S(4026)     S(4045)     S(4178)
                     S(4437)     S(4448)     S(4452)     S(4466)
                     S(4476)     S(4478)     S(4483)     S(4695)
                     S(4700)     S(4708)     S(4715)     S(4719)
                     S(4731)     S(5224)     S(5266)     S(5303)
                     S(5352)     S(5397)     S(5399)     S(5468)
                     S(5494)     S(5596)     S(5645)     S(5694)
                     S(5704)     O2(5707)    S(6566)     S(6596)
                     S(6607)     S(6626)     S(6715)     S(6941)
                     S(7084)     S(7889)     S(7946)     S(8481)
                     S(8818)     S(10690)    S(11827)    S(11828)
                     S(14811)    S(14882)    S(14904)    S(16424)
                     S(16500)    S(16611)    S(16632)    S(16664)
                     S(16810)    S(16904)    S(16972)    S(16993)
                     S(17002)    S(17026)    S(17027)    S(17028)
                     S(17044)    S(17090)    S(17093)    S(17121)
                     S(17173)    S(17195)    S(17196)    S(17333)
                     S(17475)    S(17632)    S(17655)    S(17713)
                     S(17720)    S(17748)    S(17985)    S(18085)
                     S(18139)    S(18191)    S(18554)    S(18555)
                     S(18595)    S(18805)    S(18946)    S(18952)
                     S(18953)    S(18954)    S(18973)    S(18976)
                     S(18977)    S(19028)    S(19065)    S(19101)
                     S(19213)    S(19259)    S(19279)    S(19287)
                     S(19342)    S(19407)    S(19415)    S(19533)
                     S(19536)    S(19571)    S(19601)    S(19604)
                     S(19679)    S(19681)    S(19727)    S(19748)
                     S(19766)    S(19808)    S(19811)    S(19825)
                     S(19872)    S(19902)    S(19928)    S(20017)
                     S(20119)    S(20140)    S(20200)    S(20201)
                     S(20214)    S(20215)    S(20278)    S(20309)
                     S(20394)    S(20421)    S(20440)    S(20468)""",
          reactions='all',
          transport='Mix',
          initial_state=state(temperature=300.0, pressure=OneAtm))

#-------------------------------------------------------------------------------
# Element data
#-------------------------------------------------------------------------------

element(symbol=u'X', atomic_mass=195.083)
element(symbol=u'Ci', atomic_mass=13.003)
element(symbol=u'D', atomic_mass=2.014)
element(symbol=u'Oi', atomic_mass=18.0)
element(symbol=u'T', atomic_mass=3.016)
#-------------------------------------------------------------------------------
# Species data
#-------------------------------------------------------------------------------

species(name=u'N2',
        atoms='N:2',
        thermo=(NASA([100.00, 1817.04],
                     [ 3.61262589E+00, -1.00893059E-03,  2.49898602E-06,
                      -1.43375711E-09,  2.58635952E-13, -1.05110288E+03,
                       2.65270354E+00]),
                NASA([1817.04, 5000.00],
                     [ 2.97589784E+00,  1.64141554E-03, -7.19724373E-07,
                       1.25378175E-10, -7.91530144E-15, -1.02584134E+03,
                       5.53759120E+00])),
        transport=gas_transport(geom='linear',
                                diam=3.621,
                                well_depth=97.53,
                                polar=1.76,
                                rot_relax=4.0))

species(name=u'Ar',
        atoms='Ar:1',
        thermo=(NASA([100.00, 4383.16],
                     [ 2.50000000E+00, -2.38914167E-13,  3.12709494E-16,
                      -1.33367320E-19,  1.74989654E-23, -7.45000000E+02,
                       4.36630363E+00]),
                NASA([4383.16, 5000.00],
                     [ 2.50003447E+00, -3.04996987E-08,  1.01101187E-11,
                      -1.48796738E-15,  8.20356170E-20, -7.45031138E+02,
                       4.36608535E+00])),
        transport=gas_transport(geom='atom',
                                diam=3.33,
                                well_depth=136.501))

species(name=u'Ne',
        atoms='Ne:1',
        thermo=(NASA([200.00, 1000.00],
                     [ 2.50000000E+00,  0.00000000E+00,  0.00000000E+00,
                       0.00000000E+00,  0.00000000E+00, -7.45375000E+02,
                       3.35532000E+00]),
                NASA([1000.00, 6000.00],
                     [ 2.50000000E+00,  0.00000000E+00,  0.00000000E+00,
                       0.00000000E+00,  0.00000000E+00, -7.45375000E+02,
                       3.35532000E+00])),
        transport=gas_transport(geom='atom',
                                diam=3.758,
                                well_depth=148.6))

species(name=u'nC10H22(1)',
        atoms='H:22 C:10',
        thermo=(NASA([100.00, 1753.74],
                     [-1.87595641E+00,  1.20581280E-01, -7.39939998E-05,
                       2.28626072E-08, -2.90803407E-12, -3.42986299E+04,
                       4.34818040E+01]),
                NASA([1753.74, 5000.00],
                     [ 2.27562645E+01,  6.43989610E-02, -2.59402796E-05,
                       4.59541273E-09, -3.03992222E-13, -4.29383061E+04,
                      -8.91915152E+01])),
        transport=gas_transport(geom='nonlinear',
                                diam=7.303,
                                well_depth=455.009))

species(name=u'O2(2)',
        atoms='O:2',
        thermo=(NASA([100.00, 1087.70],
                     [ 3.53763749E+00, -1.22828245E-03,  5.36761093E-06,
                      -4.93131147E-09,  1.45956330E-12, -1.03799028E+03,
                       4.67179579E+00]),
                NASA([1087.70, 5000.00],
                     [ 3.16426904E+00,  1.69454247E-03, -8.00338663E-07,
                       1.59030742E-10, -1.14891585E-14, -1.04844400E+03,
                       6.08304843E+00])),
        transport=gas_transport(geom='linear',
                                diam=3.467,
                                well_depth=106.7))

species(name=u'CH(3)',
        atoms='H:1 C:1',
        thermo=(NASA([200.00, 1000.00],
                     [ 3.47159000E+00,  4.04745000E-04, -1.89388000E-06,
                       3.33210000E-09, -1.51271000E-12,  7.07018000E+04,
                       2.14542000E+00]),
                NASA([1000.00, 3000.00],
                     [ 2.66195000E+00,  1.70245000E-03, -6.83824000E-07,
                       1.30980000E-10, -9.71843000E-15,  7.09589000E+04,
                       6.52673000E+00])),
        transport=gas_transport(geom='linear',
                                diam=2.75,
                                well_depth=80.0))

species(name=u'C2H(4)',
        atoms='H:1 C:2',
        thermo=(NASA([200.00, 1000.00],
                     [ 2.89868000E+00,  1.32988000E-02, -2.80733000E-05,
                       2.89485000E-08, -1.07502000E-11,  6.70616000E+04,
                       6.18548000E+00]),
                NASA([1000.00, 6000.00],
                     [ 3.66270000E+00,  3.82492000E-03, -1.36633000E-06,
                       2.13455000E-10, -1.23217000E-14,  6.71684000E+04,
                       3.92206000E+00])),
        transport=gas_transport(geom='linear',
                                diam=4.1,
                                well_depth=209.001,
                                rot_relax=2.5))

species(name=u'O(5)',
        atoms='O:1',
        thermo=(NASA([100.00, 4383.16],
                     [ 2.50000000E+00, -2.38914167E-13,  3.12709494E-16,
                      -1.33367320E-19,  1.74989654E-23,  2.92267216E+04,
                       5.11106770E+00]),
                NASA([4383.16, 5000.00],
                     [ 2.50003447E+00, -3.04996987E-08,  1.01101187E-11,
                      -1.48796738E-15,  8.20356170E-20,  2.92266905E+04,
                       5.11084942E+00])),
        transport=gas_transport(geom='atom',
                                diam=2.75,
                                well_depth=80.0))

species(name=u'CO(6)',
        atoms='C:1 O:1',
        thermo=(NASA([100.00, 1669.92],
                     [ 3.59709750E+00, -1.02424566E-03,  2.83338332E-06,
                      -1.75826945E-09,  3.42591902E-13, -1.43431899E+04,
                       3.45821858E+00]),
                NASA([1669.92, 5000.00],
                     [ 2.92792029E+00,  1.81935633E-03, -8.35333153E-07,
                       1.51274353E-10, -9.88911410E-15, -1.42926889E+04,
                       6.51178012E+00])),
        transport=gas_transport(geom='linear',
                                diam=3.69,
                                well_depth=91.7,
                                polar=1.76,
                                rot_relax=4.0))

species(name=u'CO2(7)',
        atoms='C:1 O:2',
        thermo=(NASA([100.00, 988.19],
                     [ 3.27789503E+00,  2.75791441E-03,  7.12755189E-06,
                      -1.07850361E-08,  4.14209511E-12, -4.84756028E+04,
                       5.97858491E+00]),
                NASA([988.19, 5000.00],
                     [ 4.55074162E+00,  2.90723321E-03, -1.14640234E-06,
                       2.25790945E-10, -1.69520622E-14, -4.89860214E+04,
                      -1.45678341E+00])),
        transport=gas_transport(geom='linear',
                                diam=3.941,
                                well_depth=195.201))

species(name=u'H2O(8)',
        atoms='H:2 O:1',
        thermo=(NASA([100.00, 1281.42],
                     [ 3.99882076E+00, -5.54838130E-04,  2.76775994E-06,
                      -1.55666524E-09,  3.02334831E-13, -3.02745569E+04,
                      -3.08970945E-02]),
                NASA([1281.42, 5000.00],
                     [ 3.19560973E+00,  1.95238962E-03, -1.67112118E-07,
                      -2.97953053E-11,  4.45151364E-15, -3.00687047E+04,
                       4.04331123E+00])),
        transport=gas_transport(geom='nonlinear',
                                diam=2.641,
                                well_depth=809.102,
                                polar=1.76,
                                rot_relax=4.0))

species(name=u'CH2O(9)',
        atoms='H:2 C:1 O:1',
        thermo=(NASA([200.00, 1000.00],
                     [ 4.79372000E+00, -9.90833000E-03,  3.73220000E-05,
                      -3.79285000E-08,  1.31773000E-11, -1.43792000E+04,
                       6.02798000E-01]),
                NASA([1000.00, 6000.00],
                     [ 3.16953000E+00,  6.19321000E-03, -2.25056000E-06,
                       3.65976000E-10, -2.20149000E-14, -1.45487000E+04,
                       6.04208000E+00])),
        transport=gas_transport(geom='nonlinear',
                                diam=3.59,
                                well_depth=498.002,
                                rot_relax=2.0))

species(name=u'CH4(10)',
        atoms='H:4 C:1',
        thermo=(NASA([200.00, 1000.00],
                     [ 5.14826000E+00, -1.37002000E-02,  4.93749000E-05,
                      -4.91952000E-08,  1.70097000E-11, -1.02453000E+04,
                      -4.63323000E+00]),
                NASA([1000.00, 6000.00],
                     [ 1.91179000E+00,  9.60268000E-03, -3.38388000E-06,
                       5.38797000E-10, -3.19307000E-14, -1.00992000E+04,
                       8.48242000E+00])),
        transport=gas_transport(geom='nonlinear',
                                diam=3.746,
                                well_depth=141.4,
                                polar=2.6,
                                rot_relax=13.0))

species(name=u'C2H4(11)',
        atoms='H:4 C:2',
        thermo=(NASA([200.00, 1000.00],
                     [ 3.95920000E+00, -7.57051000E-03,  5.70990000E-05,
                      -6.91588000E-08,  2.69884000E-11,  5.08978000E+03,
                       4.09730000E+00]),
                NASA([1000.00, 6000.00],
                     [ 3.99183000E+00,  1.04834000E-02, -3.71721000E-06,
                       5.94628000E-10, -3.53630000E-14,  4.26866000E+03,
                      -2.69082000E-01])),
        transport=gas_transport(geom='nonlinear',
                                diam=3.971,
                                well_depth=280.801,
                                rot_relax=1.5))

species(name=u'C3H6(12)',
        atoms='H:6 C:3',
        thermo=(NASA([200.00, 1000.00],
                     [ 3.83464000E+00,  3.29079000E-03,  5.05228000E-05,
                      -6.66251000E-08,  2.63707000E-11,  7.88717000E+02,
                       7.53408000E+00]),
                NASA([1000.00, 6000.00],
                     [ 6.03870000E+00,  1.62964000E-02, -5.82131000E-06,
                       9.35937000E-10, -5.58603000E-14, -7.41715000E+02,
                      -8.43826000E+00])),
        transport=gas_transport(geom='nonlinear',
                                diam=4.982,
                                well_depth=266.801,
                                rot_relax=1.0))

species(name=u'H2(13)',
        atoms='H:2',
        thermo=(NASA([100.00, 1962.85],
                     [ 3.42253752E+00,  2.86648432E-04, -4.14667779E-07,
                       4.27545701E-10, -9.38113220E-14, -1.02978491E+03,
                      -3.86364796E+00]),
                NASA([1962.85, 5000.00],
                     [ 2.74217226E+00,  5.79559382E-04,  1.97193454E-07,
                      -6.41075880E-11,  4.95989551E-15, -5.52028737E+02,
                       4.14188316E-01])),
        transport=gas_transport(geom='linear',
                                diam=2.833,
                                well_depth=59.7))

species(name=u'iC4H8(14)',
        atoms='H:8 C:4',
        thermo=(NASA([200.00, 1392.00],
                     [ 5.72478000E-02,  4.17769000E-02, -2.49096000E-05,
                       7.54294000E-09, -9.23202000E-13, -3.72166000E+03,
                       2.35699000E+01]),
                NASA([1392.00, 5000.00],
                     [ 1.11444000E+01,  1.81609000E-02, -6.17791000E-06,
                       9.55482000E-10, -5.52826000E-14, -7.84025000E+03,
                      -3.68509000E+01])),
        transport=gas_transport(geom='nonlinear',
                                diam=5.238,
                                well_depth=351.146))

species(name=u'C5H11(15)',
        atoms='H:11 C:5',
        thermo=(NASA([200.00, 1395.00],
                     [ 8.17689000E-01,  4.92654000E-02, -2.13786000E-05,
                       1.85532000E-09,  7.06259000E-13,  3.26221000E+03,
                       2.65876000E+01]),
                NASA([1395.00, 5000.00],
                     [ 1.47177000E+01,  2.41668000E-02, -8.18648000E-06,
                       1.26272000E-09, -7.29268000E-14, -2.26028000E+03,
                      -5.06071000E+01])),
        transport=gas_transport(geom='nonlinear',
                                diam=5.734,
                                well_depth=367.022))

species(name=u'C4H9(16)',
        atoms='H:9 C:4',
        thermo=(NASA([200.00, 1388.00],
                     [ 6.23604000E-01,  3.99290000E-02, -1.89597000E-05,
                       3.45938000E-09, -2.39236000E-14,  6.17689000E+03,
                       2.52738000E+01]),
                NASA([1388.00, 5000.00],
                     [ 1.11370000E+01,  2.04039000E-02, -6.97571000E-06,
                       1.08245000E-09, -6.27715000E-14,  1.95591000E+03,
                      -3.30856000E+01])),
        transport=gas_transport(geom='nonlinear',
                                diam=5.176,
                                well_depth=357.002,
                                rot_relax=1.0))

species(name=u'C7H15(17)',
        atoms='H:15 C:7',
        thermo=(NASA([100.00, 2507.43],
                     [ 8.69629680E-01,  7.03717790E-02, -3.49834661E-05,
                       7.97987558E-09, -7.11974227E-13, -2.43792430E+03,
                       3.01351349E+01]),
                NASA([2507.43, 5000.00],
                     [ 2.36825727E+01,  3.39794281E-02, -1.32128774E-05,
                       2.19161974E-09, -1.34866976E-13, -1.38783585E+04,
                      -1.00895241E+02])),
        transport=gas_transport(geom='nonlinear',
                                diam=6.366,
                                well_depth=402.997))

species(name=u'C7H14(18)',
        atoms='H:14 C:7',
        thermo=(NASA([100.00, 1093.69],
                     [ 5.16513499E-01,  6.46822695E-02, -1.31163335E-05,
                      -1.94266883E-08,  9.49337819E-12, -1.17682821E+04,
                       2.95503771E+01]),
                NASA([1093.69, 5000.00],
                     [ 1.25234636E+01,  4.44654018E-02, -1.78890800E-05,
                       3.29345121E-09, -2.28555484E-13, -1.58118985E+04,
                      -3.59307123E+01])),
        transport=gas_transport(geom='nonlinear',
                                diam=6.24,
                                well_depth=412.931))

species(name=u'C4H8(19)',
        atoms='H:8 C:4',
        thermo=(NASA([200.00, 1000.00],
                     [ 5.57279000E+00,  3.76541000E-03,  6.52227000E-05,
                      -8.30910000E-08,  3.20311000E-11, -3.60128000E+03,
                       5.37797000E-01]),
                NASA([1000.00, 6000.00],
                     [ 7.89115000E+00,  2.24971000E-02, -8.12144000E-06,
                       1.31274000E-09, -7.84452000E-14, -5.51643000E+03,
                      -1.76436000E+01])),
        transport=gas_transport(geom='nonlinear',
                                diam=5.289,
                                well_depth=359.053))

species(name=u'C6H12(20)',
        atoms='H:12 C:6',
        thermo=(NASA([100.00, 1047.22],
                     [ 1.27613890E+00,  4.86048326E-02,  5.05476295E-06,
                      -3.27836893E-08,  1.37433501E-11, -8.93586515E+03,
                       2.38829393E+01]),
                NASA([1047.22, 5000.00],
                     [ 1.07487818E+01,  3.74726329E-02, -1.48805989E-05,
                       2.74930912E-09, -1.92394287E-13, -1.22934160E+04,
                      -2.88123029E+01])),
        transport=gas_transport(geom='nonlinear',
                                diam=5.925,
                                well_depth=395.365))

species(name=u'C6H13(21)',
        atoms='H:13 C:6',
        thermo=(NASA([100.00, 2003.81],
                     [ 1.33686348E+00,  5.73244385E-02, -2.58738081E-05,
                       4.74283177E-09, -2.39017941E-13,  4.08839098E+02,
                       2.62441801E+01]),
                NASA([2003.81, 5000.00],
                     [ 1.70744710E+01,  3.29273152E-02, -1.28644353E-05,
                       2.16251691E-09, -1.35163733E-13, -7.30719724E+03,
                      -6.41349154E+01])),
        transport=gas_transport(geom='nonlinear',
                                diam=6.051,
                                well_depth=385.187))

species(name=u'CHO(22)',
        atoms='H:1 C:1 O:1',
        thermo=(NASA([200.00, 1000.00],
                     [ 4.23755000E+00, -3.32075000E-03,  1.40030000E-05,
                      -1.34240000E-08,  4.37416000E-12,  3.87241000E+03,
                       3.30835000E+00]),
                NASA([1000.00, 6000.00],
                     [ 3.92002000E+00,  2.52279000E-03, -6.71004000E-07,
                       1.05616000E-10, -7.43798000E-15,  3.65343000E+03,
                       3.58077000E+00])),
        transport=gas_transport(geom='nonlinear',
                                diam=3.59,
                                well_depth=498.002))

species(name=u'C2H6(23)',
        atoms='H:6 C:2',
        thermo=(NASA([200.00, 1000.00],
                     [ 4.29143000E+00, -5.50155000E-03,  5.99438000E-05,
                      -7.08466000E-08,  2.68686000E-11, -1.15222000E+04,
                       2.66679000E+00]),
                NASA([1000.00, 6000.00],
                     [ 4.04666000E+00,  1.53539000E-02, -5.47039000E-06,
                       8.77827000E-10, -5.23168000E-14, -1.24473000E+04,
                      -9.68698000E-01])),
        transport=gas_transport(geom='nonlinear',
                                diam=4.302,
                                well_depth=252.301,
                                rot_relax=1.5))

species(name=u'C5H1O(24)',
        atoms='H:10 C:5',
        thermo=(NASA([200.00, 1385.00],
                     [ 5.90529000E-01,  4.85275000E-02, -2.43232000E-05,
                       4.86096000E-09, -1.13099000E-13, -5.99778000E+03,
                       2.41816000E+01]),
                NASA([1385.00, 5000.00],
                     [ 1.39426000E+01,  2.28735000E-02, -7.77800000E-06,
                       1.20285000E-09, -6.95972000E-14, -1.12166000E+04,
                      -4.95380000E+01])),
        transport=gas_transport(geom='nonlinear',
                                diam=5.608,
                                well_depth=377.434))

species(name=u'C6H6(26)',
        atoms='H:6 C:6',
        thermo=(NASA([200.00, 1000.00],
                     [ 5.04819000E-01,  1.85021000E-02,  7.38346000E-05,
                      -1.18136000E-07,  5.07210000E-11,  8.55248000E+03,
                       2.16413000E+01]),
                NASA([1000.00, 6000.00],
                     [ 1.10810000E+01,  2.07177000E-02, -7.52146000E-06,
                       1.22321000E-09, -7.36091000E-14,  4.30641000E+03,
                      -4.00413000E+01])),
        transport=gas_transport(geom='nonlinear',