units(length='cm', time='s', quantity='mol', act_energy='kcal/mol')

ideal_gas(name='gas',
          elements="H D T C Ci O Oi N Ne Ar He Si S Cl",
          species="""N2          Ar          Ne          iC8H18(1)
                     O2(2)       CH(3)       C2H(4)      O(5)
                     CO(6)       CO2(7)      H2O(8)      CH2O(9)
                     CH4(10)     C2H4(11)    C3H6(12)    H2(13)
                     iC4H8(14)   H(15)       OH(16)      He(17)
                     HO2(18)     H2O2(19)    CH3(20)     HCO(21)
                     CH3CO(22)   CH2CHO(23)  C2H3(24)    CH2(25)
                     CH2CO(26)   C2H2(27)    HOCO(28)    CH3OH(29)
                     CH2(S)(30)  CH2OH(31)   CH3O(32)    HCOH(33)
                     CH3OO(34)   C2H5(35)    C(36)       CH3OOH(37)
                     CH2OOH(38)  C2H6(39)    CH3CHO(40)  C2H5O(41)
                     C2H5O2(42)  H2CC(43)    C2H4O(44)   C2H5O(45)
                     cC2H4O(46)  C2H5O2(47)  C2H3O2(48)  CHCHO(49)
                     OCHCHO(50)  HCCO(51)    HCCOH(52)   CHCHOH(53)
                     C2(54)      C2O(55)     C2H6O(56)   C2H5O(57)
                     C2H5O3(58)  cC2H3O(59)  HOCHO(60)   C2H3O3(61)
                     OCHCO(62)   C2H6O2(63)  C2H5O2(64)  C2H4O2(65)
                     HOCH2O(66)  OCHO(67)    C2H4O3(68)  C2H3O2(69)
                     C3H6O(79)   C3H5O(80)   C3H5O3(82)  C3H6O3(83)
                     C3H4O(84)   IC3H7(103)  C3H5(104)   S(107)
                     C3H5(110)   C3H5O(138)  C3H5O(140)  C3H4(175)
                     TC4H9(280)  IC4H9(281)  S(282)      S(284)
                     IC4H7(288)  C4H7O(289)  C4H8O(291)  C4H8O(292)
                     S(299)      C4H6O(305)  S(351)      S(376)
                     S(390)      S(391)      C5H10(401)  C4H5O(421)
                     C5H11(543)  S(555)      C5H11(670)  S(672)
                     S(674)      S(675)      C7H15(683)  C7H15(684)
                     C8H17(685)  C8H17(686)  C8H17(687)  C8H17(688)
                     C2H4(700)   C7H14(721)  C7H14(722)  S(733)
                     C7H14(736)  S(747)      C8H16(749)  S(754)
                     S(776)      S(812)      S(815)      S(816)
                     C7H13(836)  C7H13(882)  S(903)      S(904)
                     S(905)      S(917)      S(920)      S(934)
                     S(944)      S(945)      S(953)      S(957)
                     S(1052)     S(1129)     S(1133)     S(1151)
                     S(1154)     S(1155)     S(1173)     S(1179)
                     S(1233)     S(1292)     S(1305)     S(1407)
                     S(1474)     S(1505)     S(1520)     S(1547)
                     S(1564)     S(1575)     S(1597)     S(1798)
                     S(1821)     S(1825)     S(1898)     S(1899)
                     S(1903)     S(1911)     S(1916)     S(1941)
                     S(1959)     S(1962)     S(1963)     S(1972)
                     S(1973)     S(1991)     S(1994)     S(1995)
                     S(2036)     S(2056)     S(2059)     S(2089)
                     S(2091)     S(2098)     S(2106)     S(2108)
                     S(2115)     S(2122)     S(2128)     S(2137)
                     S(2170)     S(2184)     S(2222)     S(2226)
                     S(2232)     S(2260)     S(2287)     S(2291)
                     S(2327)     S(2345)     S(2390)     S(2401)
                     S(2417)     S(2426)     S(2432)     S(2499)
                     S(2571)     S(2625)     S(2633)     S(2660)
                     S(2672)     S(2685)     S(2689)     S(2841)
                     S(2850)     S(3109)     S(3111)     S(3296)
                     S(3311)     S(3312)     S(4092)     S(4105)
                     S(4192)     S(4215)     S(4251)     S(4463)
                     S(4468)     S(4496)     S(4507)     S(4510)
                     S(5409)     S(5424)     S(5451)     S(5479)
                     S(5488)     S(5525)     S(5553)     S(5573)
                     S(5601)     S(5603)     S(5622)     S(6236)
                     S(6750)     S(6753)     S(6754)     S(6855)
                     S(6897)     S(6922)     S(6923)     S(6932)
                     S(6935)     S(6957)     S(6968)     S(6969)
                     S(7008)     S(7014)     S(7057)     S(7058)
                     S(7105)     S(7118)     S(7127)     S(7169)
                     S(7216)     S(7217)     S(7290)     S(7597)
                     S(7713)     S(7714)     S(7962)     S(8141)
                     S(8159)     S(9006)     S(9184)     S(9207)
                     S(9208)     S(9846)     S(10137)    S(10148)
                     S(10382)    S(10385)    S(10405)    S(10486)
                     S(11095)    S(12886)    S(12890)    S(13124)
                     S(15683)    S(15714)    S(15803)    S(16388)
                     S(20277)    S(20609)    S(23344)    S(23535)
                     S(23574)    S(23838)    S(23849)    S(25524)""",
          reactions='all',
          initial_state=state(temperature=300.0, pressure=OneAtm))

#-------------------------------------------------------------------------------
# Element data
#-------------------------------------------------------------------------------

element(symbol=u'Ci', atomic_mass=13.003)
element(symbol=u'D', atomic_mass=2.014)
element(symbol=u'Oi', atomic_mass=18.0)
element(symbol=u'T', atomic_mass=3.016)
#-------------------------------------------------------------------------------
# Species data
#-------------------------------------------------------------------------------

species(name=u'N2',
        atoms='N:2',
        thermo=(NASA([100.00, 1817.04],
                     [ 3.61262577E+00, -1.00892952E-03,  2.49898347E-06,
                      -1.43375499E-09,  2.58635395E-13, -1.05110288E+03,
                       2.65270399E+00]),
                NASA([1817.04, 5000.00],
                     [ 2.97590593E+00,  1.64140468E-03, -7.19719150E-07,
                       1.25377103E-10, -7.91522188E-15, -1.02584593E+03,
                       5.53754353E+00])))

species(name=u'Ar',
        atoms='Ar:1',
        thermo=(NASA([100.00, 4383.16],
                     [ 2.50000000E+00, -2.38914167E-13,  3.12709494E-16,
                      -1.33367320E-19,  1.74989654E-23, -7.45000000E+02,
                       4.36630363E+00]),
                NASA([4383.16, 5000.00],
                     [ 2.50003447E+00, -3.04996987E-08,  1.01101187E-11,
                      -1.48796738E-15,  8.20356170E-20, -7.45031138E+02,
                       4.36608535E+00])))

species(name=u'Ne',
        atoms='Ne:1',
        thermo=(NASA([200.00, 1000.00],
                     [ 2.50000000E+00,  0.00000000E+00,  0.00000000E+00,
                       0.00000000E+00,  0.00000000E+00, -7.45375000E+02,
                       3.35532000E+00]),
                NASA([1000.00, 6000.00],
                     [ 2.50000000E+00,  0.00000000E+00,  0.00000000E+00,
                       0.00000000E+00,  0.00000000E+00, -7.45375000E+02,
                       3.35532000E+00])))

species(name=u'iC8H18(1)',
        atoms='H:18 C:8',
        thermo=(NASA([100.00, 1056.45],
                     [-6.54889712E-01,  8.50322915E-02, -1.52854679E-05,
                      -3.22219394E-08,  1.59484713E-11, -3.02765691E+04,
                       3.02490975E+01]),
                NASA([1056.45, 5000.00],
                     [ 1.73312183E+01,  5.30881971E-02, -2.12661151E-05,
                       3.94784820E-09, -2.77020830E-13, -3.60945098E+04,
                      -6.70604197E+01])))

species(name=u'O2(2)',
        atoms='O:2',
        thermo=(NASA([100.00, 1087.71],
                     [ 3.53763683E+00, -1.22827485E-03,  5.36758541E-06,
                      -4.93128012E-09,  1.45955076E-12, -1.03799025E+03,
                       4.67179818E+00]),
                NASA([1087.71, 5000.00],
                     [ 3.16427290E+00,  1.69453611E-03, -8.00335082E-07,
                       1.59029911E-10, -1.14890904E-14, -1.04844569E+03,
                       6.08302655E+00])))

species(name=u'CH(3)',
        atoms='H:1 C:1',
        thermo=(NASA([200.00, 1000.00],
                     [ 3.47159000E+00,  4.04745000E-04, -1.89388000E-06,
                       3.33210000E-09, -1.51271000E-12,  7.07018000E+04,
                       2.14542000E+00]),
                NASA([1000.00, 3000.00],
                     [ 2.66195000E+00,  1.70245000E-03, -6.83824000E-07,
                       1.30980000E-10, -9.71843000E-15,  7.09589000E+04,
                       6.52673000E+00])))

species(name=u'C2H(4)',
        atoms='H:1 C:2',
        thermo=(NASA([200.00, 1000.00],
                     [ 2.89868000E+00,  1.32988000E-02, -2.80733000E-05,
                       2.89485000E-08, -1.07502000E-11,  6.70616000E+04,
                       6.18548000E+00]),
                NASA([1000.00, 6000.00],
                     [ 3.66270000E+00,  3.82492000E-03, -1.36633000E-06,
                       2.13455000E-10, -1.23217000E-14,  6.71684000E+04,
                       3.92206000E+00])))

species(name=u'O(5)',
        atoms='O:1',
        thermo=(NASA([100.00, 4383.16],
                     [ 2.50000000E+00, -2.38914167E-13,  3.12709494E-16,
                      -1.33367320E-19,  1.74989654E-23,  2.92267216E+04,
                       5.11106770E+00]),
                NASA([4383.16, 5000.00],
                     [ 2.50003447E+00, -3.04996987E-08,  1.01101187E-11,
                      -1.48796738E-15,  8.20356170E-20,  2.92266905E+04,
                       5.11084942E+00])))

species(name=u'CO(6)',
        atoms='C:1 O:1',
        thermo=(NASA([100.00, 1669.91],
                     [ 3.59709776E+00, -1.02424814E-03,  2.83338958E-06,
                      -1.75827500E-09,  3.42593462E-13, -1.43431899E+04,
                       3.45821758E+00]),
                NASA([1669.91, 5000.00],
                     [ 2.92790884E+00,  1.81937225E-03, -8.35341035E-07,
                       1.51276009E-10, -9.88923938E-15, -1.42926827E+04,
                       6.51184709E+00])))

species(name=u'CO2(7)',
        atoms='C:1 O:2',
        thermo=(NASA([100.00, 988.19],
                     [ 3.27789883E+00,  2.75786865E-03,  7.12771566E-06,
                      -1.07852526E-08,  4.14218887E-12, -4.84756030E+04,
                       5.97857134E+00]),
                NASA([988.19, 5000.00],
                     [ 4.55072680E+00,  2.90725847E-03, -1.14641692E-06,
                       2.25794394E-10, -1.69523485E-14, -4.89860152E+04,
                      -1.45670000E+00])))

species(name=u'H2O(8)',
        atoms='H:2 O:1',
        thermo=(NASA([100.00, 1281.44],
                     [ 3.99881998E+00, -5.54830883E-04,  2.76774197E-06,
                      -1.55664942E-09,  3.02330299E-13, -3.02745569E+04,
                      -3.08941329E-02]),
                NASA([1281.44, 5000.00],
                     [ 3.19560339E+00,  1.95240061E-03, -1.67118548E-07,
                      -2.97937699E-11,  4.45138523E-15, -3.00687021E+04,
                       4.04334673E+00])))

species(name=u'CH2O(9)',
        atoms='H:2 C:1 O:1',
        thermo=(NASA([200.00, 1000.00],
                     [ 4.79372000E+00, -9.90833000E-03,  3.73220000E-05,
                      -3.79285000E-08,  1.31773000E-11, -1.43792000E+04,
                       6.02798000E-01]),
                NASA([1000.00, 6000.00],
                     [ 3.16953000E+00,  6.19321000E-03, -2.25056000E-06,
                       3.65976000E-10, -2.20149000E-14, -1.45487000E+04,
                       6.04208000E+00])))

species(name=u'CH4(10)',
        atoms='H:4 C:1',
        thermo=(NASA([200.00, 1000.00],
                     [ 5.14826000E+00, -1.37002000E-02,  4.93749000E-05,
                      -4.91952000E-08,  1.70097000E-11, -1.02453000E+04,
                      -4.63323000E+00]),
                NASA([1000.00, 6000.00],
                     [ 1.91179000E+00,  9.60268000E-03, -3.38388000E-06,
                       5.38797000E-10, -3.19307000E-14, -1.00992000E+04,
                       8.48242000E+00])))

species(name=u'C2H4(11)',
        atoms='H:4 C:2',
        thermo=(NASA([200.00, 1000.00],
                     [ 3.95920000E+00, -7.57051000E-03,  5.70990000E-05,
                      -6.91588000E-08,  2.69884000E-11,  5.08978000E+03,
                       4.09730000E+00]),
                NASA([1000.00, 6000.00],
                     [ 3.99183000E+00,  1.04834000E-02, -3.71721000E-06,
                       5.94628000E-10, -3.53630000E-14,  4.26866000E+03,
                      -2.69082000E-01])))

species(name=u'C3H6(12)',
        atoms='H:6 C:3',
        thermo=(NASA([200.00, 1000.00],
                     [ 3.83464000E+00,  3.29079000E-03,  5.05228000E-05,
                      -6.66251000E-08,  2.63707000E-11,  7.88717000E+02,
                       7.53408000E+00]),
                NASA([1000.00, 6000.00],
                     [ 6.03870000E+00,  1.62964000E-02, -5.82131000E-06,
                       9.35937000E-10, -5.58603000E-14, -7.41715000E+02,
                      -8.43826000E+00])))

species(name=u'H2(13)',
        atoms='H:2',
        thermo=(NASA([100.00, 1962.86],
                     [ 3.42253780E+00,  2.86646024E-04, -4.14662326E-07,
                       4.27541429E-10, -9.38102659E-14, -1.02978492E+03,
                      -3.86364902E+00]),
                NASA([1962.86, 5000.00],
                     [ 2.74214292E+00,  5.79597460E-04,  1.97175640E-07,
                      -6.41040149E-11,  4.95963521E-15, -5.52011412E+02,
                       4.14362224E-01])))

species(name=u'iC4H8(14)',
        atoms='H:8 C:4',
        thermo=(NASA([200.00, 1392.00],
                     [ 5.72478000E-02,  4.17769000E-02, -2.49096000E-05,
                       7.54294000E-09, -9.23202000E-13, -3.72166000E+03,
                       2.35699000E+01]),
                NASA([1392.00, 5000.00],
                     [ 1.11444000E+01,  1.81609000E-02, -6.17791000E-06,
                       9.55482000E-10, -5.52826000E-14, -7.84025000E+03,
                      -3.68509000E+01])))

species(name=u'H(15)',
        atoms='H:1',
        thermo=(NASA([100.00, 4383.16],
                     [ 2.50000000E+00, -2.38914167E-13,  3.12709494E-16,
                      -1.33367320E-19,  1.74989654E-23,  2.54727081E+04,
                      -4.59566247E-01]),
                NASA([4383.16, 5000.00],
                     [ 2.50003447E+00, -3.04996987E-08,  1.01101187E-11,
                      -1.48796738E-15,  8.20356170E-20,  2.54726770E+04,
                      -4.59784534E-01])))

species(name=u'OH(16)',
        atoms='H:1 O:1',
        thermo=(NASA([100.00, 1005.24],
                     [ 3.48579318E+00,  1.33399885E-03, -4.70054183E-06,
                       5.64393447E-09, -2.06323747E-12,  3.41195714E+03,
                       1.99788624E+00]),
                NASA([1005.24, 5000.00],
                     [ 2.88226356E+00,  1.03866921E-03, -2.35641168E-07,
                       1.40204240E-11,  6.34789746E-16,  3.66955542E+03,
                       5.59047041E+00])))

species(name=u'He(17)',
        atoms='He:1',
        thermo=(NASA([100.00, 4383.16],
                     [ 2.50000000E+00, -2.38914167E-13,  3.12709494E-16,
                      -1.33367320E-19,  1.74989654E-23, -7.45000000E+02,
                       9.14221530E-01]),
                NASA([4383.16, 5000.00],
                     [ 2.50003447E+00, -3.04996987E-08,  1.01101187E-11,
                      -1.48796738E-15,  8.20356170E-20, -7.45031138E+02,
                       9.14003242E-01])))

species(name=u'HO2(18)',
        atoms='H:1 O:2',
        thermo=(NASA([100.00, 923.90],
                     [ 4.02957107E+00, -2.63998930E-03,  1.52235427E-05,
                      -1.71678543E-08,  6.26771070E-12,  3.22676805E+02,
                       4.84424037E+00]),
                NASA([923.90, 5000.00],
                     [ 4.15129967E+00,  1.91151750E-03, -4.11307832E-07,
                       6.35037514E-11, -4.86452298E-15,  8.34341022E+01,
                       3.09359133E+00])))

species(name=u'H2O2(19)',
        atoms='H:2 O:2',
        thermo=(NASA([100.00, 923.28],
                     [ 3.72866085E+00,  4.13388982E-03,  5.67454130E-06,
                      -1.01859637E-08,  4.28584486E-12, -1.76963955E+04,
                       5.35914855E+00]),
                NASA([923.28, 5000.00],
                     [ 4.95154573E+00,  3.54224941E-03, -1.01037852E-06,
                       1.61935079E-10, -1.10203774E-14, -1.81228053E+04,
                      -1.52927478E+00])))

species(name=u'CH3(20)',
        atoms='H:3 C:1',
        thermo=(NASA([200.00, 1000.00],
                     [ 3.65718000E+00,  2.12660000E-03,  5.45839000E-06,
                      -6.61810000E-09,  2.46571000E-12,  1.64227000E+04,
                       1.67354000E+00]),
                NASA([1000.00, 6000.00],
                     [ 2.97812000E+00,  5.79785000E-03, -1.97558000E-06,
                       3.07298000E-10, -1.79174000E-14,  1.65095000E+04,
                       4.72248000E+00])))

species(name=u'HCO(21)',
        atoms='H:1 C:1 O:1',
        thermo=(NASA([200.00, 1000.00],
                     [ 4.23755000E+00, -3.32075000E-03,  1.40030000E-05,
                      -1.34240000E-08,  4.37416000E-12,  3.87241000E+03,
                       3.30835000E+00]),
                NASA([1000.00, 6000.00],
                     [ 3.92002000E+00,  2.52279000E-03, -6.71004000E-07,
                       1.05616000E-10, -7.43798000E-15,  3.65343000E+03,
                       3.58077000E+00])))

species(name=u'CH3CO(22)',
        atoms='H:3 C:2 O:1',
        thermo=(NASA([200.00, 1000.00],
                     [ 4.03587000E+00,  8.77295000E-04,  3.07100000E-05,
                      -3.92476000E-08,  1.52969000E-11, -2.68207000E+03,
                       7.86177000E+00]),
                NASA([1000.00, 6000.00],
                     [ 5.31372000E+00,  9.17378000E-03, -3.32204000E-06,
                       5.39475000E-10, -3.24524000E-14, -3.64504000E+03,
                      -1.67576000E+00])))

species(name=u'CH2CHO(23)',
        atoms='H:3 C:2 O:1',
        thermo=(NASA([200.00, 1000.00],
                     [ 2.66874000E+00,  9.62330000E-03,  1.60617000E-05,
                      -2.87682000E-08,  1.25030000E-11,  2.19438000E+02,
                       1.25694000E+01]),
                NASA([1000.00, 6000.00],
                     [ 5.91637000E+00,  8.84650000E-03, -3.14955000E-06,
                       5.05413000E-10, -3.01305000E-14, -1.04780000E+03,
                      -6.10650000E+00])))

species(name=u'C2H3(24)',
        atoms='H:3 C:2',
        thermo=(NASA([200.00, 1000.00],
                     [ 3.36378000E+00,  2.65766000E-04,  2.79621000E-05,
                      -3.72987000E-08,  1.51590000E-11,  3.44750000E+04,
                       7.91510000E+00]),
                NASA([1000.00, 6000.00],
                     [ 4.15027000E+00,  7.54021000E-03, -2.62998000E-06,
                       4.15974000E-10, -2.45408000E-14,  3.38566000E+04,
                       1.72812000E+00])))

species(name=u'CH2(25)',
        atoms='H:2 C:1',
        thermo=(NASA([200.00, 1000.00],
                     [ 3.83280000E+00,  2.24446000E-04,  4.68033000E-06,
                      -6.04743000E-09,  2.59009000E-12,  4.59208000E+04,
                       1.40666000E+00]),
                NASA([1000.00, 3000.00],
                     [ 3.16229000E+00,  2.81798000E-03, -7.56235000E-07,
                       5.05446000E-11,  5.65236000E-15,  4.60991000E+04,
                       4.77656000E+00])))

species(name=u'CH2CO(26)',
        atoms='H:2 C:2 O:1',
        thermo=(NASA([200.00, 1000.00],
                     [ 2.13241000E+00,  1.81319000E-02, -1.74093000E-05,
                       9.35336000E-09, -2.01725000E-12, -7.14809000E+03,
                       1.33808000E+01]),
                NASA([1000.00, 6000.00],
                     [ 5.75871000E+00,  6.35124000E-03, -2.25955000E-06,
                       3.62322000E-10, -2.15856000E-14, -8.08533000E+03,
                      -4.96490000E+00])))

species(name=u'C2H2(27)',
        atoms='H:2 C:2',
        thermo=(NASA([200.00, 1000.00],
                     [ 8.08680000E-01,  2.33616000E-02, -3.55172000E-05,
                       2.80153000E-08, -8.50075000E-12,  2.64290000E+04,
                       1.39397000E+01]),
                NASA([1000.00, 6000.00],
                     [ 4.65878000E+00,  4.88397000E-03, -1.60829000E-06,
                       2.46975000E-10, -1.38606000E-14,  2.57594000E+04,
                      -3.99838000E+00])))

species(name=u'HOCO(28)',
        atoms='H:1 C:1 O:2',
        thermo=(NASA([200.00, 998.40],
                     [ 2.82191000E+00,  9.66218000E-03, -2.78560000E-06,
                      -4.12692000E-09,  2.61472000E-12, -2.35465000E+04,
                       1.14285000E+01]),
                NASA([998.40, 3000.00],
                     [ 4.63989000E+00,  5.66363000E-03, -2.67855000E-06,
                       6.17049000E-10, -5.60954000E-14, -2.40527000E+04,
                       1.90175000E+00])))

species(name=u'CH3OH(29)',
        atoms='H:4 C:1 O:1',
        thermo=(NASA([200.00, 1000.00],
                     [ 5.65851000E+00, -1.62983000E-02,  6.91938000E-05,
                      -7.58373000E-08,  2.80428000E-11, -2.56120000E+04,
                      -8.97331000E-01]),
                NASA([1000.00, 6000.00],
                     [ 3.52727000E+00,  1.03179000E-02, -3.62893000E-06,
                       5.77448000E-10, -3.42183000E-14, -2.60029000E+04,
                       5.16759000E+00])))

species(name=u'CH2(S)(30)',
        atoms='H:2 C:1',
        thermo=(NASA([200.00, 1000.00],
                     [ 4.19195000E+00, -2.30793000E-03,  8.05090000E-06,
                      -6.60123000E-09,  1.95638000E-12,  5.04843000E+04,
                      -7.54589000E-01]),
                NASA([1000.00, 3000.00],
                     [ 2.28556000E+00,  4.60255000E-03, -1.97412000E-06,
                       4.09548000E-10, -3.34695000E-14,  5.09224000E+04,
                       8.67684000E+00])))

species(name=u'CH2OH(31)',
        atoms='H:3 C:1 O:1',
        thermo=(NASA([200.00, 1000.00],
                     [ 4.47834000E+00, -1.35070000E-03,  2.78485000E-05,
                      -3.64869000E-08,  1.47907000E-11, -3.50073000E+03,
                       3.30913000E+00]),
                NASA([1000.00, 6000.00],
                     [ 5.09314000E+00,  5.94761000E-03, -2.06497000E-06,
                       3.23008000E-10, -1.88126000E-14, -4.03410000E+03,
                      -1.84691000E+00])))

species(name=u'CH3O(32)',
        atoms='H:3 C:1 O:1',
        thermo=(NASA([200.00, 1000.00],
                     [ 3.71181000E+00, -2.80463000E-03,  3.76551000E-05,
                      -4.73072000E-08,  1.86588000E-11,  1.29570000E+03,
                       6.57241000E+00]),
                NASA([1000.00, 6000.00],
                     [ 4.75779000E+00,  7.44142000E-03, -2.69705000E-06,
                       4.38091000E-10, -2.63537000E-14,  3.78112000E+02,
                      -1.96680000E+00])))

species(name=u'HCOH(33)',
        atoms='H:2 C:1 O:1',
        thermo=(NASA([200.00, 1000.00],
                     [ 4.65733000E+00, -9.53742000E-03,  4.04679000E-05,
                      -4.45318000E-08,  1.64762000E-11,  1.38615000E+04,
                       1.97861000E+00]),
                NASA([1000.00, 6000.00],
                     [ 3.65237000E+00,  5.55807000E-03, -1.97617000E-06,
                       3.16823000E-10, -1.88748000E-14,  1.35536000E+04,
                       4.22141000E+00])))

species(name=u'CH3OO(34)',
        atoms='H:3 C:1 O:2',
        thermo=(NASA([298.00, 1000.00],
                     [ 2.93065000E+00,  8.68504000E-03,  8.80315000E-06,
                      -1.39561000E-08,  5.02940000E-12,  2.27483000E+02,
                       1.28755000E+01]),
                NASA([1000.00, 3000.00],
                     [ 2.88425000E+00,  1.40068000E-02, -6.88364000E-06,
                       1.63790000E-09, -1.53129000E-13, -2.00433000E+01,
                       1.18153000E+01])))

species(name=u'C2H5(35)',
        atoms='H:5 C:2',
        thermo=(NASA([200.00, 1000.00],
                     [ 4.24186000E+00, -3.56905000E-03,  4.82667000E-05,
                      -5.85401000E-08,  2.25805000E-11,  1.29690000E+04,
                       4.44704000E+00]),
                NASA([1000.00, 6000.00],
                     [ 4.32196000E+00,  1.23931000E-02, -4.39681000E-06,
                       7.03520000E-10, -4.18435000E-14,  1.21759000E+04,
                       1.71104000E-01])))

species(name=u'C(36)',
        atoms='C:1',
        thermo=(NASA([200.00, 1000.00],
                     [ 2.49975000E+00,  5.02139000E-07,  1.93093000E-09,
                      -4.94633000E-12,  2.74089000E-15,  8.54858000E+04,
                       3.66241000E+00]),
                NASA([1000.00, 3000.00],
                     [ 2.49891000E+00,  2.41252000E-06, -1.88942000E-09,
                       6.24309000E-13, -7.45464000E-17,  8.54862000E+04,
                       3.66710000E+00])))

species(name=u'CH3OOH(37)',
        atoms='H:4 C:1 O:2',
        thermo=(NASA([298.00, 1000.00],
                     [ 2.85837000E+00,  1.59701000E-02, -2.52104000E-06,
                      -5.73600000E-09,  2.80535000E-12, -1.68830000E+04,
                       1.28970000E+01]),
                NASA([1000.00, 3000.00],
                     [ 4.45931000E+00,  1.41051000E-02, -6.53177000E-06,
                       1.47663000E-09, -1.32512000E-13, -1.74301000E+04,
                       4.03867000E+00])))

species(name=u'CH2OOH(38)',
        atoms='H:3 C:1 O:2',
        thermo=(NASA([200.00, 1000.00],
                     [ 5.83127000E+00, -3.51771000E-03,  4.54551000E-05,
                      -5.66903000E-08,  2.21633000E-11,  6.06187000E+03,
                      -5.79143000E-01]),
                NASA([1000.00, 2500.00],
                     [ 6.98746000E+00,  9.00484000E-03, -3.24367000E-06,
                       5.24325000E-10, -3.13587000E-14,  5.01258000E+03,
                      -1.02619000E+01])))

species(name=u'C2H6(39)',
        atoms='H:6 C:2',
        thermo=(NASA([200.00, 1000.00],
                     [ 4.29143000E+00, -5.50155000E-03,  5.99438000E-05,
                      -7.08466000E-08,  2.68686000E-11, -1.15222000E+04,
                       2.66679000E+00]),
                NASA([1000.00, 6000.00],
                     [ 4.04666000E+00,  1.53539000E-02, -5.47039000E-06,
                       8.77827000E-10, -5.23168000E-14, -1.24473000E+04,
                      -9.68698000E-01])))

species(name=u'CH3CHO(40)',
        atoms='H:4 C:2 O:1',
        thermo=(NASA([200.00, 1000.00],
                     [ 4.72946000E+00, -3.19329000E-03,  4.75349000E-05,
                      -5.74586000E-08,  2.19311000E-11, -2.15729000E+04,
                       4.10302000E+00]),
                NASA([1000.00, 6000.00],
                     [ 5.40411000E+00,  1.17231000E-02, -4.22631000E-06,
                       6.83725000E-10, -4.09849000E-14, -2.25931000E+04,
                      -3.48079000E+00])))

species(name=u'C2H5O(41)',
        atoms='H:5 C:2 O:1',
        thermo=(NASA([200.00, 1000.00],
                     [ 3.26906000E+00,  9.33563000E-03,  2.96317000E-05,
                      -4.53411000E-08,  1.88796000E-11, -2.95023000E+03,
                       1.04201000E+01]),
                NASA([1000.00, 6000.00],
                     [ 6.55054000E+00,  1.32526000E-02, -4.74726000E-06,
                       7.64699000E-10, -4.57008000E-14, -4.47192000E+03,
                      -9.61231000E+00])))

species(name=u'C2H5O2(42)',
        atoms='H:5 C:2 O:2',
        thermo=(NASA([200.00, 1000.00],
                     [ 4.50099000E+00,  6.87965000E-03,  4.74144000E-05,
                      -6.92287000E-08,  2.87395000E-11, -5.39548000E+03,
                       7.91490000E+00]),
                NASA([1000.00, 6000.00],
                     [ 8.88872000E+00,  1.35833000E-02, -4.91117000E-06,
                       7.92343000E-10, -4.73526000E-14, -7.44107000E+03,
                      -1.90790000E+01])))

species(name=u'H2CC(43)',
        atoms='H:2 C:2',
        thermo=(NASA([200.00, 1000.00],
                     [ 3.28155000E+00,  6.97643000E-03, -2.38528000E-06,
                      -1.21078000E-09,  9.82042000E-13,  4.83192000E+04,
                       5.92036000E+00]),
                NASA([1000.00, 6000.00],
                     [ 4.27807000E+00,  4.75623000E-03, -1.63007000E-06,
                       2.54623000E-10, -1.48860000E-14,  4.80140000E+04,
                       6.39979000E-01])))

species(name=u'C2H4O(44)',
        atoms='H:4 C:2 O:1',
        thermo=(NASA([200.00, 1000.00],
                     [ 2.28758000E+00,  1.97013000E-02,  1.96383000E-06,
                      -1.94390000E-08,  1.02617000E-11, -1.65373000E+04,
                       1.41333000E+01]),
                NASA([1000.00, 6000.00],
                     [ 7.49818000E+00,  1.03957000E-02, -3.66891000E-06,
                       5.85206000E-10, -3.47374000E-14, -1.81643000E+04,
                      -1.38388000E+01])))

species(name=u'C2H5O(45)',
        atoms='H:5 C:2 O:1',
        thermo=(NASA([200.00, 1000.00],
                     [ 4.20954000E+00,  9.12965000E-03,  2.47462000E-05,
                      -3.92946000E-08,  1.66541000E-11, -4.91511000E+03,
                       8.30445000E+00]),
                NASA([1000.00, 6000.00],
                     [ 7.01349000E+00,  1.20204000E-02, -4.21992000E-06,
                       6.70676000E-10, -3.97135000E-14, -6.16162000E+03,
                      -8.62052000E+00])))

species(name=u'cC2H4O(46)',
        atoms='H:4 C:2 O:1',