units(length='cm', time='s', quantity='mol', act_energy='kcal/mol')

ideal_gas(name='gas',
          elements="H D T C Ci O Oi N Ne Ar He Si S Cl I X",
          species="""N2          Ar          Ne          nC10H22(1)
                     O2(2)       CH(3)       C2H(4)      O(5)
                     CO(6)       CO2(7)      H2O(8)      CH2O(9)
                     CH4(10)     C2H4(11)    C3H6(12)    H2(13)
                     R_1(14)     R_2(15)     R_3(16)     R_4(17)
                     R_5(18)     ROO_1(19)   ROO_2(20)   ROO_3(21)
                     ROO_4(22)   ROO_5(23)   QOOH_1(24)  QOOH_2(25)
                     QOOH_3(26)  QOOH_4(27)  QOOH_5(28)  QOOH_6(29)
                     QOOH_7(30)  QOOH_8(31)  QOOH_9(32)  S(33)
                     S(34)       S(35)       S(36)       S(37)
                     S(38)       S(39)       S(40)       S(41)
                     S(42)       S(43)       S(44)       S(45)
                     S(46)       S(47)       S(48)       S(49)
                     S(50)       S(51)       S(52)       S(53)
                     S(54)       S(55)       S(56)       S(57)
                     S(58)       S(59)       S(60)       S(61)
                     S(62)       S(63)       S(64)       S(65)
                     S(66)       S(67)       S(68)       S(69)
                     S(70)       S(71)       S(72)       S(73)
                     S(74)       S(75)       S(76)       S(77)
                     S(78)       S(79)       S(80)       S(81)
                     S(82)       S(83)       S(84)       S(85)
                     S(86)       S(87)       S(88)       S(89)
                     S(90)       S(91)       S(92)       S(93)
                     S(94)       S(95)       S(96)       S(97)
                     S(98)       S(99)       S(100)      S(101)
                     S(102)      S(103)      S(104)      S(105)
                     S(106)      S(107)      S(108)      S(109)
                     S(110)      S(111)      S(112)      S(113)
                     S(114)      S(115)      S(116)      S(117)
                     S(118)      S(119)      S(120)      S(121)
                     S(122)      S(123)      S(124)      S(125)
                     S(126)      S(127)      S(128)      S(129)
                     S(130)      S(131)      S(132)      S(133)
                     S(134)      S(135)      S(136)      S(137)
                     S(138)      S(139)      S(140)      S(141)
                     S(142)      S(143)      S(144)      S(145)
                     S(146)      S(147)      S(148)      S(149)
                     S(150)      S(151)      S(152)      S(153)
                     S(154)      S(155)      S(156)      S(157)
                     S(158)      S(159)      S(160)      S(161)
                     S(162)      S(163)      S(164)      S(165)
                     S(166)      S(167)      S(168)      S(169)
                     S(170)      S(171)      S(172)      S(173)
                     S(174)      S(175)      S(176)      S(177)
                     S(178)      S(179)      S(180)      S(181)
                     S(182)      S(183)      S(184)      S(185)
                     S(186)      S(187)      S(188)      S(189)
                     S(190)      S(191)      S(192)      S(193)
                     S(194)      S(195)      S(196)      S(197)
                     S(198)      S(199)      S(200)      S(201)
                     S(202)      S(203)      S(204)      S(205)
                     S(206)      S(207)      S(208)      S(209)
                     S(210)      S(211)      S(212)      S(213)
                     S(214)      S(215)      S(216)      S(217)
                     S(218)      S(219)      S(220)      S(221)
                     S(222)      S(223)      S(224)      S(225)
                     S(226)      S(227)      S(228)      S(229)
                     S(230)      S(231)      S(232)      S(233)
                     S(234)      S(235)      S(236)      S(237)
                     S(238)      S(239)      S(240)      S(241)
                     S(242)      S(243)      S(244)      S(245)
                     S(246)      S(247)      S(248)      S(249)
                     S(250)      S(251)      S(252)      S(253)
                     S(254)      S(255)      RO_1(256)   RO_2(257)
                     RO_3(258)   RO_4(259)   RO_5(260)   H(261)
                     OH(262)     He(263)     HO2(264)    H2O2(265)
                     HOCO(266)   HCO(267)    CH3(268)    CH2(269)
                     CH3OH(270)  CH2(271)    CH2OH(272)  CH3O(273)
                     HCOH(274)   CH3OO(275)  CH2CO(276)  C2H5(277)
                     C2H3(278)   C(279)      C2H2(280)   CH4O2(281)
                     CH3O2(282)  C2H6(283)   C2H4O(284)  C2H5O(285)
                     S(286)      C2H3O(287)  H2CC(288)   C2H4O(289)
                     C2H5O(290)  C2H4O(291)  S(292)      S(293)
                     CHCHO(294)  S(295)      HCCO(296)   HCCOH(297)
                     C2H3O(298)  C2(299)     C2O(300)    C2H6O(301)
                     C2H5O(302)  S(303)      CH3CO(304)  C2H3O(305)
                     HOCHO(306)  S(307)      OCHCO(308)  S(309)
                     S(310)      S(311)      CH3O2(312)  OCHO(313)
                     S(314)      S(315)      O2CHO(316)  CH2O3(317)
                     CH3O3(318)  CH3O3(319)  CH4O3(320)  S(321)
                     S(322)      H2CC(323)   C3H3(324)   C3H6O(325)
                     C3H5O(326)  S(327)      S(328)      S(329)
                     C3H4O(330)  C3H3O(331)  C3H6O(332)  C3H5O(333)
                     C2H6O(334)  C2H5O(335)  S(336)      S(337)
                     S(338)      S(339)      S(340)      S(341)
                     S(342)      S(343)      S(344)      S(345)
                     S(346)      C3H8(347)   NC3H7(348)  IC3H7(349)
                     C3H5(350)   S(351)      S(352)      S(353)
                     S(354)      CC3H6(355)  C3H5(356)   C3H5(357)
                     C6H5(358)   S(369)      S(370)      C3H6O(372)
                     C3H6O(373)  C3H5O(384)  C3H5O(386)  C3H5O(387)
                     C3H6O(388)  C3H7O(434)  C3H7O(435)  PC4H9(437)
                     SC4H9(438)  S(439)      S(441)      C4H8(443)
                     C4H8(444)   C4H7(445)   C4H7(446)   C4H7(447)
                     C4H6(449)   C4H6O(465)  C4H8O(469)  C4H8O(470)
                     S(474)      S(475)      S(480)      S(493)
                     S(507)      C4H7O(513)  C4H7O(515)  C4H6O(518)
                     C4H8O(519)  C4H7O(523)  C5H11(673)  C5H11(674)
                     C5H10(676)  C5H10(677)  S(688)      S(690)
                     S(695)      S(696)      S(697)      S(700)
                     S(701)      S(705)      S(706)      S(709)
                     S(711)      S(712)      S(724)      S(727)
                     S(729)      S(754)      S(775)      C7H15(931)
                     C8H17(932)  C6H13(933)  C9H19(934)  C9H19(935)
                     C9H19(936)  S(937)      S(938)      C7H14(939)
                     C6H12(940)  S(963)      C8H16(964)  S(983)
                     C9H19(998)  S(999)      S(1014)     S(1029)
                     S(1030)     S(1070)     S(1071)     C2H4(1152)
                     S(1177)     S(1200)     S(1217)     S(1232)
                     S(1250)     S(1272)     S(1312)     S(1363)
                     S(1364)     S(1365)     S(1389)     S(1451)
                     S(1456)     S(1504)     S(1527)     S(1576)
                     S(1609)     S(1648)     S(1668)     S(1685)
                     S(1702)     S(1717)     S(1832)     S(1834)
                     S(1889)     S(1911)     S(1948)     S(1974)
                     S(1975)     S(1995)     S(1996)     S(2023)
                     S(2032)     S(2105)     S(2119)     S(2172)
                     S(2217)     S(2221)     S(2238)     S(2403)
                     S(2461)     S(2484)     S(2540)     S(2550)
                     S(2593)     S(2599)     S(2607)     S(2657)
                     S(2679)     S(2756)     S(2875)     S(3194)
                     S(3195)     S(3218)     S(3606)     S(3627)
                     S(3666)     S(3686)     S(3706)     S(3726)
                     S(3763)     S(3829)     S(3831)     S(3833)
                     S(3834)     S(3837)     S(3841)     S(3849)
                     S(3850)     S(3854)     S(3866)     S(3868)
                     S(3869)     S(4465)     S(4726)     S(4729)
                     S(4730)     S(4731)     S(4734)     S(4768)
                     S(4794)     S(4805)     S(4835)     S(4850)
                     S(4878)     S(4951)     S(4986)     S(4994)
                     S(5002)     S(5043)     S(5061)     S(5099)
                     S(5107)     S(5114)     S(5152)     S(5204)
                     S(5217)     S(5242)     S(5250)     S(5273)
                     S(5279)     S(5341)     S(5374)     S(5384)
                     S(5638)     S(5659)     S(5669)     S(5772)
                     S(5793)     S(5804)     S(5838)     S(5859)
                     S(6026)     S(6057)     S(6058)     S(6099)
                     S(6196)     S(6199)     S(6261)     S(6444)
                     S(6477)     S(6570)     S(6602)     S(6623)
                     S(6636)     S(6775)     S(6911)     S(6940)
                     S(6974)     S(7004)     S(7035)     S(7195)
                     S(7196)     S(7197)     S(7198)     S(7206)
                     S(7407)     S(7411)     S(7412)     S(7419)
                     S(7425)     S(7505)     S(7522)     S(7525)
                     S(7535)     S(7541)     S(7552)     S(7553)
                     S(7558)     S(7613)     S(7637)     S(7667)
                     S(7669)     S(7671)     S(7672)     S(7679)
                     S(7681)     S(7682)     S(7685)     S(7809)
                     S(7882)     S(7883)     S(7895)     S(7912)
                     S(7920)     S(8103)     S(8127)     S(8128)
                     S(8130)     S(8173)     S(8243)     S(8251)
                     S(8289)     S(8330)     S(8390)     S(8429)
                     S(8489)     S(8558)     S(8562)     S(8598)
                     S(8685)     S(8688)     S(8703)     S(8705)
                     S(8717)     S(8718)     S(8723)     S(8740)
                     S(8752)     S(8761)     S(8767)     S(8795)
                     S(8842)     S(8843)     S(8851)     S(8872)
                     S(8931)     S(8937)     S(8963)     S(8969)
                     S(8997)     S(9000)     S(9008)     S(9150)
                     S(9270)     S(9317)     S(9318)     S(9344)
                     S(9362)     S(9533)     S(9577)     S(9589)
                     S(10352)    S(10896)    S(10900)    S(11116)
                     S(11708)    S(12282)    S(12458)    S(12464)
                     S(12769)    S(13207)    S(13464)    S(13812)
                     S(14143)    S(14821)    S(15372)    S(15380)
                     S(15437)    S(15438)    S(15442)    S(15448)
                     S(17777)    S(17778)    S(17789)    S(17842)
                     S(18419)    S(19282)    S(21680)    S(22701)
                     S(22709)    S(22715)    S(22725)    S(22726)
                     S(22729)    S(22731)    S(22748)    S(22749)
                     S(22750)    S(22760)    S(22767)    S(22768)
                     S(22794)    S(22795)    S(22796)    S(22805)
                     S(22822)    S(22834)    S(22843)    S(22853)
                     S(22869)    S(22972)    S(22980)    S(23060)
                     S(23072)    S(23074)    S(23078)    S(23103)
                     S(23161)    S(23185)    S(23305)    S(23308)
                     S(23324)    S(23338)    S(23472)    S(23480)
                     S(23569)    S(23581)    S(23582)    S(23586)
                     S(23599)    S(23603)    S(23606)    S(23626)
                     S(23628)    S(23642)    S(23660)    S(23666)
                     S(23715)    S(23716)    S(23731)    S(23807)
                     S(23831)    S(23832)    S(23846)    S(23918)
                     S(23968)    S(24054)    S(24067)    S(24068)
                     S(24088)    S(24113)    S(24328)    S(24343)
                     S(24357)    S(24372)    S(24404)    S(24478)
                     S(24479)    S(24655)    S(24657)    S(24678)
                     S(24762)    S(24784)    S(24928)    S(24995)
                     S(25019)    S(25240)    S(25283)    S(25863)
                     S(26121)    S(26331)    S(26348)    S(26349)
                     S(26429)    S(26442)    S(26545)    S(26716)
                     S(27028)    S(27038)    S(27039)    S(27051)
                     S(27055)    S(27410)    S(27412)    S(27925)
                     S(28059)    S(28068)    S(28069)    S(28126)
                     S(28128)    S(28173)    S(28218)    S(28219)
                     S(28240)    S(28385)    S(29665)    S(29745)
                     S(29748)    S(29751)    S(29780)    S(29802)
                     S(29803)    S(29871)    S(29872)    S(29894)
                     S(29902)    S(29921)    S(29954)    S(30012)
                     S(32008)    S(32088)    S(32089)    S(32094)
                     S(32175)    S(32187)    S(32188)    S(33822)
                     S(33823)""",
          reactions='all',
          transport='Mix',
          initial_state=state(temperature=300.0, pressure=OneAtm))

#-------------------------------------------------------------------------------
# Element data
#-------------------------------------------------------------------------------

element(symbol='Ci', atomic_mass=13.003)
element(symbol='D', atomic_mass=2.014)
element(symbol='Oi', atomic_mass=18.0)
element(symbol='T', atomic_mass=3.016)
element(symbol='X', atomic_mass=195.083)
#-------------------------------------------------------------------------------
# Species data
#-------------------------------------------------------------------------------

species(name='N2',
        atoms='N:2',
        thermo=(NASA([100.00, 1817.04],
                     [ 3.61262577E+00, -1.00892952E-03,  2.49898347E-06,
                      -1.43375499E-09,  2.58635395E-13, -1.05110288E+03,
                       2.65270399E+00]),
                NASA([1817.04, 5000.00],
                     [ 2.97590593E+00,  1.64140468E-03, -7.19719150E-07,
                       1.25377103E-10, -7.91522188E-15, -1.02584593E+03,
                       5.53754353E+00])),
        transport=gas_transport(geom='linear',
                                diam=3.621,
                                well_depth=97.53,
                                polar=1.76,
                                rot_relax=4.0))

species(name='Ar',
        atoms='Ar:1',
        thermo=(NASA([100.00, 4383.16],
                     [ 2.50000000E+00, -2.38914167E-13,  3.12709494E-16,
                      -1.33367320E-19,  1.74989654E-23, -7.45000000E+02,
                       4.36630363E+00]),
                NASA([4383.16, 5000.00],
                     [ 2.50003447E+00, -3.04996987E-08,  1.01101187E-11,
                      -1.48796738E-15,  8.20356170E-20, -7.45031138E+02,
                       4.36608535E+00])),
        transport=gas_transport(geom='atom',
                                diam=3.33,
                                well_depth=136.5))

species(name='Ne',
        atoms='Ne:1',
        thermo=(NASA([200.00, 1000.00],
                     [ 2.50000000E+00,  0.00000000E+00,  0.00000000E+00,
                       0.00000000E+00,  0.00000000E+00, -7.45375000E+02,
                       3.35532000E+00]),
                NASA([1000.00, 6000.00],
                     [ 2.50000000E+00,  0.00000000E+00,  0.00000000E+00,
                       0.00000000E+00,  0.00000000E+00, -7.45375000E+02,
                       3.35532000E+00])),
        transport=gas_transport(geom='atom',
                                diam=3.758,
                                well_depth=148.6))

species(name='nC10H22(1)',
        atoms='C:10 H:22',
        thermo=(NASA([100.00, 1753.74],
                     [-1.87595642E+00,  1.20581280E-01, -7.39939999E-05,
                       2.28626073E-08, -2.90803409E-12, -3.42986299E+04,
                       4.34818040E+01]),
                NASA([1753.74, 5000.00],
                     [ 2.27562642E+01,  6.43989615E-02, -2.59402799E-05,
                       4.59541278E-09, -3.03992226E-13, -4.29383060E+04,
                      -8.91915134E+01])),
        transport=gas_transport(geom='nonlinear',
                                diam=7.303,
                                well_depth=455.009))

species(name='O2(2)',
        atoms='O:2',
        thermo=(NASA([100.00, 1087.71],
                     [ 3.53763683E+00, -1.22827485E-03,  5.36758541E-06,
                      -4.93128012E-09,  1.45955076E-12, -1.03799025E+03,
                       4.67179818E+00]),
                NASA([1087.71, 5000.00],
                     [ 3.16427290E+00,  1.69453611E-03, -8.00335082E-07,
                       1.59029911E-10, -1.14890904E-14, -1.04844569E+03,
                       6.08302655E+00])),
        transport=gas_transport(geom='linear',
                                diam=3.467,
                                well_depth=106.7))

species(name='CH(3)',
        atoms='C:1 H:1',
        thermo=(NASA([200.00, 1000.00],
                     [ 3.47159000E+00,  4.04745000E-04, -1.89388000E-06,
                       3.33210000E-09, -1.51271000E-12,  7.07018000E+04,
                       2.14542000E+00]),
                NASA([1000.00, 3000.00],
                     [ 2.66195000E+00,  1.70245000E-03, -6.83824000E-07,
                       1.30980000E-10, -9.71843000E-15,  7.09589000E+04,
                       6.52673000E+00])),
        transport=gas_transport(geom='linear',
                                diam=2.75,
                                well_depth=80.0))

species(name='C2H(4)',
        atoms='C:2 H:1',
        thermo=(NASA([200.00, 1000.00],
                     [ 2.89868000E+00,  1.32988000E-02, -2.80733000E-05,
                       2.89485000E-08, -1.07502000E-11,  6.70616000E+04,
                       6.18548000E+00]),
                NASA([1000.00, 6000.00],
                     [ 3.66270000E+00,  3.82492000E-03, -1.36633000E-06,
                       2.13455000E-10, -1.23217000E-14,  6.71684000E+04,
                       3.92206000E+00])),
        transport=gas_transport(geom='linear',
                                diam=4.1,
                                well_depth=209.0,
                                rot_relax=2.5))

species(name='O(5)',
        atoms='O:1',
        thermo=(NASA([100.00, 4383.16],
                     [ 2.50000000E+00, -2.38914167E-13,  3.12709494E-16,
                      -1.33367320E-19,  1.74989654E-23,  2.92267216E+04,
                       5.11106770E+00]),
                NASA([4383.16, 5000.00],
                     [ 2.50003447E+00, -3.04996987E-08,  1.01101187E-11,
                      -1.48796738E-15,  8.20356170E-20,  2.92266905E+04,
                       5.11084942E+00])),
        transport=gas_transport(geom='atom',
                                diam=2.75,
                                well_depth=80.0))

species(name='CO(6)',
        atoms='C:1 O:1',
        thermo=(NASA([100.00, 1669.91],
                     [ 3.59709776E+00, -1.02424814E-03,  2.83338958E-06,
                      -1.75827500E-09,  3.42593462E-13, -1.43431899E+04,
                       3.45821758E+00]),
                NASA([1669.91, 5000.00],
                     [ 2.92790884E+00,  1.81937225E-03, -8.35341035E-07,
                       1.51276009E-10, -9.88923938E-15, -1.42926827E+04,
                       6.51184709E+00])),
        transport=gas_transport(geom='linear',
                                diam=3.69,
                                well_depth=91.7,
                                polar=1.76,
                                rot_relax=4.0))

species(name='CO2(7)',
        atoms='C:1 O:2',
        thermo=(NASA([100.00, 988.19],
                     [ 3.27789883E+00,  2.75786865E-03,  7.12771566E-06,
                      -1.07852526E-08,  4.14218887E-12, -4.84756030E+04,
                       5.97857134E+00]),
                NASA([988.19, 5000.00],
                     [ 4.55072680E+00,  2.90725847E-03, -1.14641692E-06,
                       2.25794394E-10, -1.69523485E-14, -4.89860152E+04,
                      -1.45670000E+00])),
        transport=gas_transport(geom='linear',
                                diam=3.941,
                                well_depth=195.201))

species(name='H2O(8)',
        atoms='H:2 O:1',
        thermo=(NASA([100.00, 1281.44],
                     [ 3.99881998E+00, -5.54830883E-04,  2.76774197E-06,
                      -1.55664942E-09,  3.02330299E-13, -3.02745569E+04,
                      -3.08941329E-02]),
                NASA([1281.44, 5000.00],
                     [ 3.19560339E+00,  1.95240061E-03, -1.67118548E-07,
                      -2.97937699E-11,  4.45138523E-15, -3.00687021E+04,
                       4.04334673E+00])),
        transport=gas_transport(geom='nonlinear',
                                diam=2.641,
                                well_depth=809.102,
                                polar=1.76,
                                rot_relax=4.0))

species(name='CH2O(9)',
        atoms='C:1 H:2 O:1',
        thermo=(NASA([200.00, 1000.00],
                     [ 4.79372000E+00, -9.90833000E-03,  3.73220000E-05,
                      -3.79285000E-08,  1.31773000E-11, -1.43792000E+04,
                       6.02798000E-01]),
                NASA([1000.00, 6000.00],
                     [ 3.16953000E+00,  6.19321000E-03, -2.25056000E-06,
                       3.65976000E-10, -2.20149000E-14, -1.45487000E+04,
                       6.04208000E+00])),
        transport=gas_transport(geom='nonlinear',
                                diam=3.59,
                                well_depth=498.0,
                                rot_relax=2.0))

species(name='CH4(10)',
        atoms='C:1 H:4',
        thermo=(NASA([200.00, 1000.00],
                     [ 5.14826000E+00, -1.37002000E-02,  4.93749000E-05,
                      -4.91952000E-08,  1.70097000E-11, -1.02453000E+04,
                      -4.63323000E+00]),
                NASA([1000.00, 6000.00],
                     [ 1.91179000E+00,  9.60268000E-03, -3.38388000E-06,
                       5.38797000E-10, -3.19307000E-14, -1.00992000E+04,
                       8.48242000E+00])),
        transport=gas_transport(geom='nonlinear',
                                diam=3.746,
                                well_depth=141.4,
                                polar=2.6,
                                rot_relax=13.0))

species(name='C2H4(11)',
        atoms='C:2 H:4',
        thermo=(NASA([200.00, 1000.00],
                     [ 3.95920000E+00, -7.57051000E-03,  5.70990000E-05,
                      -6.91588000E-08,  2.69884000E-11,  5.08978000E+03,
                       4.09730000E+00]),
                NASA([1000.00, 6000.00],
                     [ 3.99183000E+00,  1.04834000E-02, -3.71721000E-06,
                       5.94628000E-10, -3.53630000E-14,  4.26866000E+03,
                      -2.69082000E-01])),
        transport=gas_transport(geom='nonlinear',
                                diam=3.971,
                                well_depth=280.8,
                                rot_relax=1.5))

species(name='C3H6(12)',
        atoms='C:3 H:6',
        thermo=(NASA([200.00, 1000.00],
                     [ 3.83464000E+00,  3.29079000E-03,  5.05228000E-05,
                      -6.66251000E-08,  2.63707000E-11,  7.88717000E+02,
                       7.53408000E+00]),
                NASA([1000.00, 6000.00],
                     [ 6.03870000E+00,  1.62964000E-02, -5.82131000E-06,
                       9.35937000E-10, -5.58603000E-14, -7.41715000E+02,
                      -8.43826000E+00])),
        transport=gas_transport(geom='nonlinear',
                                diam=4.982,
                                well_depth=266.801,
                                rot_relax=1.0))

species(name='H2(13)',
        atoms='H:2',
        thermo=(NASA([100.00, 1962.86],
                     [ 3.42253780E+00,  2.86646024E-04, -4.14662326E-07,
                       4.27541429E-10, -9.38102659E-14, -1.02978492E+03,
                      -3.86364902E+00]),
                NASA([1962.86, 5000.00],
                     [ 2.74214292E+00,  5.79597460E-04,  1.97175640E-07,
                      -6.41040149E-11,  4.95963521E-15, -5.52011412E+02,
                       4.14362224E-01])),
        transport=gas_transport(geom='linear',
                                diam=2.833,
                                well_depth=59.7))

species(name='R_1(14)',
        atoms='C:10 H:21',
        thermo=(NASA([100.00, 1599.67],
                     [-6.79582770E-01,  1.10668720E-01, -6.45751566E-05,
                       1.92304368E-08, -2.47031484E-12, -1.09684526E+04,
                       4.23917760E+01]),
                NASA([1599.67, 5000.00],
                     [ 1.28061075E+01,  7.69478242E-02, -3.29555621E-05,
                       6.05299915E-09, -4.10932845E-13, -1.52830199E+04,
                      -2.90045396E+01])),
        transport=gas_transport(geom='nonlinear',
                                diam=7.303,
                                well_depth=455.009))

species(name='R_2(15)',
        atoms='C:10 H:21',
        thermo=(NASA([100.00, 1599.67],
                     [-6.79582770E-01,  1.10668720E-01, -6.45751566E-05,
                       1.92304368E-08, -2.47031484E-12, -1.09684526E+04,
                       4.23917760E+01]),
                NASA([1599.67, 5000.00],
                     [ 1.28061075E+01,  7.69478242E-02, -3.29555621E-05,
                       6.05299915E-09, -4.10932845E-13, -1.52830199E+04,
                      -2.90045396E+01])),
        transport=gas_transport(geom='nonlinear',
                                diam=7.303,
                                well_depth=455.009))

species(name='R_3(16)',
        atoms='C:10 H:21',
        thermo=(NASA([100.00, 1628.34],
                     [-1.56103413E+00,  1.18312626E-01, -7.51032359E-05,
                       2.44364082E-08, -3.32172868E-12, -9.62864788E+03,
                       4.48119200E+01]),
                NASA([1628.34, 5000.00],
                     [ 1.94376963E+01,  6.67289419E-02, -2.75847114E-05,
                       4.98141802E-09, -3.34762158E-13, -1.64671928E+04,
                      -6.67327660E+01])),
        transport=gas_transport(geom='nonlinear',
                                diam=7.303,
                                well_depth=455.009))

species(name='R_4(17)',
        atoms='C:10 H:21',
        thermo=(NASA([100.00, 1596.68],
                     [-9.32459804E-01,  1.12610756E-01, -6.73778298E-05,
                       2.07622169E-08, -2.74203030E-12, -1.09574948E+04,
                       4.34809217E+01]),
                NASA([1596.68, 5000.00],
                     [ 1.43729921E+01,  7.42675557E-02, -3.13563275E-05,
                       5.72204601E-09, -3.87116646E-13, -1.58450756E+04,
                      -3.75208591E+01])),
        transport=gas_transport(geom='nonlinear',
                                diam=7.303,
                                well_depth=455.009))

species(name='R_5(18)',
        atoms='C:10 H:21',
        thermo=(NASA([100.00, 1599.67],
                     [-6.79582770E-01,  1.10668720E-01, -6.45751566E-05,
                       1.92304368E-08, -2.47031484E-12, -1.09684526E+04,
                       4.23917760E+01]),
                NASA([1599.67, 5000.00],
                     [ 1.28061075E+01,  7.69478242E-02, -3.29555621E-05,
                       6.05299915E-09, -4.10932845E-13, -1.52830199E+04,
                      -2.90045396E+01])),
        transport=gas_transport(geom='nonlinear',
                                diam=7.303,
                                well_depth=455.009))

species(name='ROO_1(19)',
        atoms='C:10 H:21 O:2',
        thermo=(NASA([100.00, 1163.96],
                     [-2.21531749E+00,  1.42238002E-01, -1.13139360E-04,
                       5.08640254E-08, -9.93151740E-12, -2.81588176E+04,
                       4.92650304E+01]),
                NASA([1163.96, 5000.00],
                     [ 1.51391833E+01,  8.25986960E-02, -3.62822046E-05,
                       6.84367305E-09, -4.76681646E-13, -3.21988203E+04,
                      -3.70953621E+01])),
        transport=gas_transport(geom='nonlinear',
                                diam=8.245,
                                well_depth=542.04))

species(name='ROO_2(20)',
        atoms='C:10 H:21 O:2',
        thermo=(NASA([100.00, 1163.96],
                     [-2.21531749E+00,  1.42238002E-01, -1.13139360E-04,
                       5.08640254E-08, -9.93151740E-12, -2.81588176E+04,
                       4.92650304E+01]),
                NASA([1163.96, 5000.00],
                     [ 1.51391833E+01,  8.25986960E-02, -3.62822046E-05,
                       6.84367305E-09, -4.76681646E-13, -3.21988203E+04,
                      -3.70953621E+01])),
        transport=gas_transport(geom='nonlinear',
                                diam=8.245,
                                well_depth=542.04))

species(name='ROO_3(21)',
        atoms='C:10 H:21 O:2',
        thermo=(NASA([100.00, 1163.96],
                     [-2.21531749E+00,  1.42238002E-01, -1.13139360E-04,
                       5.08640254E-08, -9.93151740E-12, -2.81588176E+04,
                       4.92650304E+01]),
                NASA([1163.96, 5000.00],
                     [ 1.51391833E+01,  8.25986960E-02, -3.62822046E-05,
                       6.84367305E-09, -4.76681646E-13, -3.21988203E+04,
                      -3.70953621E+01])),