units(length='cm', time='s', quantity='mol', act_energy='kcal/mol')

ideal_gas(name='gas',
          elements="H D T C Ci O Oi N Ne Ar He Si S Cl X",
          species="""N2          Ar          Ne          nC10H22(1)
                     O2(2)       CH(3)       C2H(4)      O(5)
                     CO(6)       CO2(7)      H2O(8)      CH2O(9)
                     CH4(10)     C2H4(11)    C3H6(12)    H2(13)
                     R_1(14)     R_2(15)     R_3(16)     R_4(17)
                     R_5(18)     ROO_1(19)   ROO_2(20)   ROO_3(21)
                     ROO_4(22)   ROO_5(23)   QOOH_1(24)  QOOH_2(25)
                     QOOH_3(26)  QOOH_4(27)  QOOH_5(28)  QOOH_6(29)
                     QOOH_7(30)  QOOH_8(31)  QOOH_9(32)  S(33)
                     S(34)       S(35)       S(36)       S(37)
                     S(38)       S(39)       S(40)       S(41)
                     S(42)       S(43)       S(44)       S(45)
                     S(46)       S(47)       S(48)       S(49)
                     S(50)       S(51)       S(52)       S(53)
                     S(54)       S(55)       S(56)       S(57)
                     S(58)       S(59)       S(60)       S(61)
                     S(62)       S(63)       S(64)       S(65)
                     S(66)       S(67)       S(68)       S(69)
                     S(70)       S(71)       S(72)       S(73)
                     S(74)       S(75)       S(76)       S(77)
                     S(78)       S(79)       S(80)       S(81)
                     S(82)       S(83)       S(84)       S(85)
                     S(86)       S(87)       S(88)       S(89)
                     S(90)       S(91)       S(92)       S(93)
                     S(94)       S(95)       S(96)       S(97)
                     S(98)       S(99)       S(100)      S(101)
                     S(102)      S(103)      S(104)      S(105)
                     S(106)      S(107)      S(108)      S(109)
                     S(110)      S(111)      S(112)      S(113)
                     S(114)      S(115)      S(116)      S(117)
                     S(118)      S(119)      S(120)      S(121)
                     S(122)      S(123)      S(124)      S(125)
                     S(126)      S(127)      S(128)      S(129)
                     S(130)      S(131)      S(132)      S(133)
                     S(134)      S(135)      S(136)      S(137)
                     S(138)      S(139)      S(140)      S(141)
                     S(142)      S(143)      S(144)      S(145)
                     S(146)      S(147)      S(148)      S(149)
                     S(150)      S(151)      S(152)      S(153)
                     S(154)      S(155)      S(156)      S(157)
                     S(158)      S(159)      S(160)      S(161)
                     S(162)      S(163)      S(164)      S(165)
                     S(166)      S(167)      S(168)      S(169)
                     S(170)      S(171)      S(172)      S(173)
                     S(174)      S(175)      S(176)      S(177)
                     S(178)      S(179)      S(180)      S(181)
                     S(182)      S(183)      S(184)      S(185)
                     S(186)      S(187)      S(188)      S(189)
                     S(190)      S(191)      S(192)      S(193)
                     S(194)      S(195)      S(196)      S(197)
                     S(198)      S(199)      S(200)      S(201)
                     S(202)      S(203)      S(204)      S(205)
                     S(206)      S(207)      S(208)      S(209)
                     S(210)      S(211)      S(212)      S(213)
                     S(214)      S(215)      S(216)      S(217)
                     S(218)      S(219)      S(220)      S(221)
                     S(222)      S(223)      S(224)      S(225)
                     S(226)      S(227)      S(228)      S(229)
                     S(230)      S(231)      S(232)      S(233)
                     S(234)      S(235)      S(236)      S(237)
                     S(238)      S(239)      S(240)      S(241)
                     S(242)      S(243)      S(244)      S(245)
                     S(246)      S(247)      S(248)      S(249)
                     S(250)      S(251)      S(252)      S(253)
                     S(254)      S(255)      RO_1(256)   RO_2(257)
                     RO_3(258)   RO_4(259)   RO_5(260)   H(261)
                     OH(262)     He(263)     HO2(264)    H2O2(265)
                     HOCO(266)   HCO(267)    CH3(268)    CH2(269)
                     CH3OH(270)  CH2(271)    CH2OH(272)  CH3O(273)
                     HCOH(274)   CH3OO(275)  CH2CO(276)  C2H5(277)
                     C2H3(278)   C(279)      C2H2(280)   CH4O2(281)
                     CH3O2(282)  C2H6(283)   C2H4O(284)  C2H5O(285)
                     S(286)      C2H3O(287)  H2CC(288)   C2H4O(289)
                     C2H5O(290)  C2H4O(291)  S(292)      S(293)
                     CHCHO(294)  S(295)      HCCO(296)   HCCOH(297)
                     C2H3O(298)  C2(299)     C2O(300)    C2H6O(301)
                     C2H5O(302)  S(303)      CH3CO(304)  C2H3O(305)
                     HOCHO(306)  S(307)      OCHCO(308)  S(309)
                     S(310)      S(311)      CH3O2(312)  OCHO(313)
                     S(314)      S(315)      C3H5O(326)  S(328)
                     C3H6O(332)  C3H5O(333)  NC3H7(348)  C3H5(350)
                     S(351)      S(370)      C3H5O(387)  PC4H9(437)
                     S(439)      C4H8(443)   S(474)      S(475)
                     C4H7O(513)  C4H7O(515)  C4H8O(519)  C4H7O(523)
                     C5H11(673)  C5H11(674)  C5H10(676)  S(688)
                     S(690)      S(695)      S(696)      S(700)
                     S(706)      C7H15(931)  C8H17(932)  C6H13(933)
                     C2H2O(965)  C2H4(987)   S(993)      C6H12(996)
                     S(1019)     S(1079)     S(1278)     S(1341)
                     S(1356)     S(1395)     S(1512)     S(1578)
                     S(1626)     S(1649)     S(1731)     S(1770)
                     S(1790)     S(1839)     S(2011)     S(2033)
                     S(2068)     S(2092)     S(2093)     S(2898)
                     S(2928)     S(2951)     S(3057)     S(3078)
                     S(3092)     S(3119)     S(3182)     S(3205)
                     S(3294)     S(3415)     S(3545)     S(3567)
                     S(3701)     S(3703)     S(3705)     S(3706)
                     S(3709)     S(3727)     S(3728)     S(3731)
                     S(3735)     S(3736)     S(3760)     S(3781)
                     S(3790)     S(3799)     S(3801)     S(4931)
                     S(4978)     S(4980)     S(4982)     S(4984)
                     S(5134)     S(5429)     S(5440)     S(5619)
                     S(5634)     S(5654)     S(5670)     S(5865)
                     S(5979)     S(6217)     S(6232)     S(6265)
                     S(6296)     S(6317)     S(6327)     S(6461)
                     S(6482)     S(6493)     S(6529)     S(6591)
                     S(6612)     S(6777)     S(6799)     S(6838)
                     S(6869)     S(6870)     S(6935)     S(6937)
                     S(7051)     S(7117)     S(7145)     S(7201)
                     S(7233)     S(7487)     S(7538)     S(7595)
                     S(7596)     S(7598)     S(7633)     S(7635)
                     S(7758)     S(7761)     S(7775)     S(7802)
                     S(7820)     S(7821)     S(7855)     S(7871)
                     S(7968)     S(7970)     S(7979)     S(8209)
                     S(8226)     S(8238)     S(8251)     S(8387)
                     S(9178)     S(9366)     S(9425)     S(9481)
                     S(9535)     S(9578)     S(9643)     S(9666)
                     S(9760)     S(9810)     S(9825)     S(9914)
                     S(9960)     S(10119)    S(10220)    S(10279)
                     S(10305)    S(10400)    S(10459)    S(10466)
                     S(10478)    S(10552)    S(10735)    S(11102)
                     S(11103)    S(11104)    S(11106)    S(11152)
                     S(11153)    S(11185)    S(11261)    S(11295)
                     S(11318)    S(11326)    S(11602)    S(12906)
                     S(19899)    S(22201)    S(22224)    S(23081)
                     S(25872)    S(25875)""",
          reactions='all',
          transport='Mix',
          initial_state=state(temperature=300.0, pressure=OneAtm))

#-------------------------------------------------------------------------------
# Element data
#-------------------------------------------------------------------------------

element(symbol='Ci', atomic_mass=13.003)
element(symbol='D', atomic_mass=2.014)
element(symbol='Oi', atomic_mass=18.0)
element(symbol='T', atomic_mass=3.016)
element(symbol='X', atomic_mass=195.083)
#-------------------------------------------------------------------------------
# Species data
#-------------------------------------------------------------------------------

species(name='N2',
        atoms='N:2',
        thermo=(NASA([100.00, 1817.04],
                     [ 3.61262577E+00, -1.00892952E-03,  2.49898347E-06,
                      -1.43375499E-09,  2.58635395E-13, -1.05110288E+03,
                       2.65270399E+00]),
                NASA([1817.04, 5000.00],
                     [ 2.97590593E+00,  1.64140468E-03, -7.19719150E-07,
                       1.25377103E-10, -7.91522188E-15, -1.02584593E+03,
                       5.53754353E+00])),
        transport=gas_transport(geom='linear',
                                diam=3.621,
                                well_depth=97.53,
                                polar=1.76,
                                rot_relax=4.0))

species(name='Ar',
        atoms='Ar:1',
        thermo=(NASA([100.00, 4383.16],
                     [ 2.50000000E+00, -2.38914167E-13,  3.12709494E-16,
                      -1.33367320E-19,  1.74989654E-23, -7.45000000E+02,
                       4.36630363E+00]),
                NASA([4383.16, 5000.00],
                     [ 2.50003447E+00, -3.04996987E-08,  1.01101187E-11,
                      -1.48796738E-15,  8.20356170E-20, -7.45031138E+02,
                       4.36608535E+00])),
        transport=gas_transport(geom='atom',
                                diam=3.33,
                                well_depth=136.5))

species(name='Ne',
        atoms='Ne:1',
        thermo=(NASA([200.00, 1000.00],
                     [ 2.50000000E+00,  0.00000000E+00,  0.00000000E+00,
                       0.00000000E+00,  0.00000000E+00, -7.45375000E+02,
                       3.35532000E+00]),
                NASA([1000.00, 6000.00],
                     [ 2.50000000E+00,  0.00000000E+00,  0.00000000E+00,
                       0.00000000E+00,  0.00000000E+00, -7.45375000E+02,
                       3.35532000E+00])),
        transport=gas_transport(geom='atom',
                                diam=3.758,
                                well_depth=148.6))

species(name='nC10H22(1)',
        atoms='C:10 H:22',
        thermo=(NASA([100.00, 1753.74],
                     [-1.87595642E+00,  1.20581280E-01, -7.39939999E-05,
                       2.28626073E-08, -2.90803409E-12, -3.42986299E+04,
                       4.34818040E+01]),
                NASA([1753.74, 5000.00],
                     [ 2.27562642E+01,  6.43989615E-02, -2.59402799E-05,
                       4.59541278E-09, -3.03992226E-13, -4.29383060E+04,
                      -8.91915134E+01])),
        transport=gas_transport(geom='nonlinear',
                                diam=7.303,
                                well_depth=455.009))

species(name='O2(2)',
        atoms='O:2',
        thermo=(NASA([100.00, 1087.71],
                     [ 3.53763683E+00, -1.22827485E-03,  5.36758541E-06,
                      -4.93128012E-09,  1.45955076E-12, -1.03799025E+03,
                       4.67179818E+00]),
                NASA([1087.71, 5000.00],
                     [ 3.16427290E+00,  1.69453611E-03, -8.00335082E-07,
                       1.59029911E-10, -1.14890904E-14, -1.04844569E+03,
                       6.08302655E+00])),
        transport=gas_transport(geom='linear',
                                diam=3.467,
                                well_depth=106.7))

species(name='CH(3)',
        atoms='C:1 H:1',
        thermo=(NASA([200.00, 1000.00],
                     [ 3.47159000E+00,  4.04745000E-04, -1.89388000E-06,
                       3.33210000E-09, -1.51271000E-12,  7.07018000E+04,
                       2.14542000E+00]),
                NASA([1000.00, 3000.00],
                     [ 2.66195000E+00,  1.70245000E-03, -6.83824000E-07,
                       1.30980000E-10, -9.71843000E-15,  7.09589000E+04,
                       6.52673000E+00])),
        transport=gas_transport(geom='linear',
                                diam=2.75,
                                well_depth=80.0))

species(name='C2H(4)',
        atoms='C:2 H:1',
        thermo=(NASA([200.00, 1000.00],
                     [ 2.89868000E+00,  1.32988000E-02, -2.80733000E-05,
                       2.89485000E-08, -1.07502000E-11,  6.70616000E+04,
                       6.18548000E+00]),
                NASA([1000.00, 6000.00],
                     [ 3.66270000E+00,  3.82492000E-03, -1.36633000E-06,
                       2.13455000E-10, -1.23217000E-14,  6.71684000E+04,
                       3.92206000E+00])),
        transport=gas_transport(geom='linear',
                                diam=4.1,
                                well_depth=209.0,
                                rot_relax=2.5))

species(name='O(5)',
        atoms='O:1',
        thermo=(NASA([100.00, 4383.16],
                     [ 2.50000000E+00, -2.38914167E-13,  3.12709494E-16,
                      -1.33367320E-19,  1.74989654E-23,  2.92267216E+04,
                       5.11106770E+00]),
                NASA([4383.16, 5000.00],
                     [ 2.50003447E+00, -3.04996987E-08,  1.01101187E-11,
                      -1.48796738E-15,  8.20356170E-20,  2.92266905E+04,
                       5.11084942E+00])),
        transport=gas_transport(geom='atom',
                                diam=2.75,
                                well_depth=80.0))

species(name='CO(6)',
        atoms='C:1 O:1',
        thermo=(NASA([100.00, 1669.91],
                     [ 3.59709776E+00, -1.02424814E-03,  2.83338958E-06,
                      -1.75827500E-09,  3.42593462E-13, -1.43431899E+04,
                       3.45821758E+00]),
                NASA([1669.91, 5000.00],
                     [ 2.92790884E+00,  1.81937225E-03, -8.35341035E-07,
                       1.51276009E-10, -9.88923938E-15, -1.42926827E+04,
                       6.51184709E+00])),
        transport=gas_transport(geom='linear',
                                diam=3.69,
                                well_depth=91.7,
                                polar=1.76,
                                rot_relax=4.0))

species(name='CO2(7)',
        atoms='C:1 O:2',
        thermo=(NASA([100.00, 988.19],
                     [ 3.27789883E+00,  2.75786865E-03,  7.12771566E-06,
                      -1.07852526E-08,  4.14218887E-12, -4.84756030E+04,
                       5.97857134E+00]),
                NASA([988.19, 5000.00],
                     [ 4.55072680E+00,  2.90725847E-03, -1.14641692E-06,
                       2.25794394E-10, -1.69523485E-14, -4.89860152E+04,
                      -1.45670000E+00])),
        transport=gas_transport(geom='linear',
                                diam=3.941,
                                well_depth=195.201))

species(name='H2O(8)',
        atoms='H:2 O:1',
        thermo=(NASA([100.00, 1281.44],
                     [ 3.99881998E+00, -5.54830883E-04,  2.76774197E-06,
                      -1.55664942E-09,  3.02330299E-13, -3.02745569E+04,
                      -3.08941329E-02]),
                NASA([1281.44, 5000.00],
                     [ 3.19560339E+00,  1.95240061E-03, -1.67118548E-07,
                      -2.97937699E-11,  4.45138523E-15, -3.00687021E+04,
                       4.04334673E+00])),
        transport=gas_transport(geom='nonlinear',
                                diam=2.641,
                                well_depth=809.102,
                                polar=1.76,
                                rot_relax=4.0))

species(name='CH2O(9)',
        atoms='C:1 H:2 O:1',
        thermo=(NASA([200.00, 1000.00],
                     [ 4.79372000E+00, -9.90833000E-03,  3.73220000E-05,
                      -3.79285000E-08,  1.31773000E-11, -1.43792000E+04,
                       6.02798000E-01]),
                NASA([1000.00, 6000.00],
                     [ 3.16953000E+00,  6.19321000E-03, -2.25056000E-06,
                       3.65976000E-10, -2.20149000E-14, -1.45487000E+04,
                       6.04208000E+00])),
        transport=gas_transport(geom='nonlinear',
                                diam=3.59,
                                well_depth=498.0,
                                rot_relax=2.0))

species(name='CH4(10)',
        atoms='C:1 H:4',
        thermo=(NASA([200.00, 1000.00],
                     [ 5.14826000E+00, -1.37002000E-02,  4.93749000E-05,
                      -4.91952000E-08,  1.70097000E-11, -1.02453000E+04,
                      -4.63323000E+00]),
                NASA([1000.00, 6000.00],
                     [ 1.91179000E+00,  9.60268000E-03, -3.38388000E-06,
                       5.38797000E-10, -3.19307000E-14, -1.00992000E+04,
                       8.48242000E+00])),
        transport=gas_transport(geom='nonlinear',
                                diam=3.746,
                                well_depth=141.4,
                                polar=2.6,
                                rot_relax=13.0))

species(name='C2H4(11)',
        atoms='C:2 H:4',
        thermo=(NASA([200.00, 1000.00],
                     [ 3.95920000E+00, -7.57051000E-03,  5.70990000E-05,
                      -6.91588000E-08,  2.69884000E-11,  5.08978000E+03,
                       4.09730000E+00]),
                NASA([1000.00, 6000.00],
                     [ 3.99183000E+00,  1.04834000E-02, -3.71721000E-06,
                       5.94628000E-10, -3.53630000E-14,  4.26866000E+03,
                      -2.69082000E-01])),
        transport=gas_transport(geom='nonlinear',
                                diam=3.971,
                                well_depth=280.8,
                                rot_relax=1.5))

species(name='C3H6(12)',
        atoms='C:3 H:6',
        thermo=(NASA([200.00, 1000.00],
                     [ 3.83464000E+00,  3.29079000E-03,  5.05228000E-05,
                      -6.66251000E-08,  2.63707000E-11,  7.88717000E+02,
                       7.53408000E+00]),
                NASA([1000.00, 6000.00],
                     [ 6.03870000E+00,  1.62964000E-02, -5.82131000E-06,
                       9.35937000E-10, -5.58603000E-14, -7.41715000E+02,
                      -8.43826000E+00])),
        transport=gas_transport(geom='nonlinear',
                                diam=4.982,
                                well_depth=266.801,
                                rot_relax=1.0))

species(name='H2(13)',
        atoms='H:2',
        thermo=(NASA([100.00, 1962.86],
                     [ 3.42253780E+00,  2.86646024E-04, -4.14662326E-07,
                       4.27541429E-10, -9.38102659E-14, -1.02978492E+03,
                      -3.86364902E+00]),
                NASA([1962.86, 5000.00],
                     [ 2.74214292E+00,  5.79597460E-04,  1.97175640E-07,
                      -6.41040149E-11,  4.95963521E-15, -5.52011412E+02,
                       4.14362224E-01])),
        transport=gas_transport(geom='linear',
                                diam=2.833,
                                well_depth=59.7))

species(name='R_1(14)',
        atoms='C:10 H:21',
        thermo=(NASA([100.00, 1599.67],
                     [-6.79582770E-01,  1.10668720E-01, -6.45751566E-05,
                       1.92304368E-08, -2.47031484E-12, -1.09684526E+04,
                       4.23917760E+01]),
                NASA([1599.67, 5000.00],
                     [ 1.28061075E+01,  7.69478242E-02, -3.29555621E-05,
                       6.05299915E-09, -4.10932845E-13, -1.52830199E+04,
                      -2.90045396E+01])),
        transport=gas_transport(geom='nonlinear',
                                diam=7.303,
                                well_depth=455.009))

species(name='R_2(15)',
        atoms='C:10 H:21',
        thermo=(NASA([100.00, 1599.67],
                     [-6.79582770E-01,  1.10668720E-01, -6.45751566E-05,
                       1.92304368E-08, -2.47031484E-12, -1.09684526E+04,
                       4.23917760E+01]),
                NASA([1599.67, 5000.00],
                     [ 1.28061075E+01,  7.69478242E-02, -3.29555621E-05,
                       6.05299915E-09, -4.10932845E-13, -1.52830199E+04,
                      -2.90045396E+01])),
        transport=gas_transport(geom='nonlinear',
                                diam=7.303,
                                well_depth=455.009))

species(name='R_3(16)',
        atoms='C:10 H:21',
        thermo=(NASA([100.00, 1628.34],
                     [-1.56103413E+00,  1.18312626E-01, -7.51032359E-05,
                       2.44364082E-08, -3.32172868E-12, -9.62864788E+03,
                       4.48119200E+01]),
                NASA([1628.34, 5000.00],
                     [ 1.94376963E+01,  6.67289419E-02, -2.75847114E-05,
                       4.98141802E-09, -3.34762158E-13, -1.64671928E+04,
                      -6.67327660E+01])),
        transport=gas_transport(geom='nonlinear',
                                diam=7.303,
                                well_depth=455.009))

species(name='R_4(17)',
        atoms='C:10 H:21',
        thermo=(NASA([100.00, 1596.68],
                     [-9.32459804E-01,  1.12610756E-01, -6.73778298E-05,
                       2.07622169E-08, -2.74203030E-12, -1.09574948E+04,
                       4.34809217E+01]),
                NASA([1596.68, 5000.00],
                     [ 1.43729921E+01,  7.42675557E-02, -3.13563275E-05,
                       5.72204601E-09, -3.87116646E-13, -1.58450756E+04,
                      -3.75208591E+01])),
        transport=gas_transport(geom='nonlinear',
                                diam=7.303,
                                well_depth=455.009))

species(name='R_5(18)',
        atoms='C:10 H:21',
        thermo=(NASA([100.00, 1599.67],
                     [-6.79582770E-01,  1.10668720E-01, -6.45751566E-05,
                       1.92304368E-08, -2.47031484E-12, -1.09684526E+04,
                       4.23917760E+01]),
                NASA([1599.67, 5000.00],
                     [ 1.28061075E+01,  7.69478242E-02, -3.29555621E-05,
                       6.05299915E-09, -4.10932845E-13, -1.52830199E+04,
                      -2.90045396E+01])),
        transport=gas_transport(geom='nonlinear',
                                diam=7.303,
                                well_depth=455.009))

species(name='ROO_1(19)',
        atoms='C:10 H:21 O:2',
        thermo=(NASA([100.00, 1163.96],
                     [-2.21531749E+00,  1.42238002E-01, -1.13139360E-04,
                       5.08640254E-08, -9.93151740E-12, -2.81588176E+04,
                       4.92650304E+01]),
                NASA([1163.96, 5000.00],
                     [ 1.51391833E+01,  8.25986960E-02, -3.62822046E-05,
                       6.84367305E-09, -4.76681646E-13, -3.21988203E+04,
                      -3.70953621E+01])),
        transport=gas_transport(geom='nonlinear',
                                diam=8.245,
                                well_depth=542.04))

species(name='ROO_2(20)',
        atoms='C:10 H:21 O:2',
        thermo=(NASA([100.00, 1163.96],
                     [-2.21531749E+00,  1.42238002E-01, -1.13139360E-04,
                       5.08640254E-08, -9.93151740E-12, -2.81588176E+04,
                       4.92650304E+01]),
                NASA([1163.96, 5000.00],
                     [ 1.51391833E+01,  8.25986960E-02, -3.62822046E-05,
                       6.84367305E-09, -4.76681646E-13, -3.21988203E+04,
                      -3.70953621E+01])),
        transport=gas_transport(geom='nonlinear',
                                diam=8.245,
                                well_depth=542.04))

species(name='ROO_3(21)',
        atoms='C:10 H:21 O:2',
        thermo=(NASA([100.00, 1163.96],
                     [-2.21531749E+00,  1.42238002E-01, -1.13139360E-04,
                       5.08640254E-08, -9.93151740E-12, -2.81588176E+04,
                       4.92650304E+01]),
                NASA([1163.96, 5000.00],
                     [ 1.51391833E+01,  8.25986960E-02, -3.62822046E-05,
                       6.84367305E-09, -4.76681646E-13, -3.21988203E+04,
                      -3.70953621E+01])),
        transport=gas_transport(geom='nonlinear',
                                diam=8.245,
                                well_depth=542.04))

species(name='ROO_4(22)',
        atoms='C:10 H:21 O:2',
        thermo=(NASA([100.00, 1048.82],
                     [-2.13630867E+00,  1.43313045E-01, -1.19418877E-04,
                       5.86278763E-08, -1.27335893E-11, -2.66432336E+04,
                       4.93417252E+01]),
                NASA([1048.82, 5000.00],
                     [ 1.26482644E+01,  8.69281167E-02, -3.87792443E-05,
                       7.37107101E-09, -5.15992391E-13, -2.97445390E+04,
                      -2.26901741E+01])),
        transport=gas_transport(geom='nonlinear',
                                diam=8.217,
                                well_depth=540.319))

species(name='ROO_5(23)',
        atoms='C:10 H:21 O:2',
        thermo=(NASA([100.00, 1163.96],
                     [-2.21531749E+00,  1.42238002E-01, -1.13139360E-04,
                       5.08640254E-08, -9.93151740E-12, -2.81588176E+04,
                       4.92650304E+01]),
                NASA([1163.96, 5000.00],
                     [ 1.51391833E+01,  8.25986960E-02, -3.62822046E-05,
                       6.84367305E-09, -4.76681646E-13, -3.21988203E+04,
                      -3.70953621E+01])),
        transport=gas_transport(geom='nonlinear',
                                diam=8.245,
                                well_depth=542.04))

species(name='QOOH_1(24)',
        atoms='C:10 H:21 O:2',
        thermo=(NASA([100.00, 1038.56],
                     [-2.14086756E+00,  1.44151751E-01, -1.20332579E-04,
                       5.92998012E-08, -1.29800540E-11, -2.30597293E+04,
                       5.09923801E+01]),
                NASA([1038.56, 5000.00],
                     [ 1.23402772E+01,  8.83774510E-02, -3.97768127E-05,
                       7.58955308E-09, -5.32389449E-13, -2.60676172E+04,
                      -1.94185741E+01])),
        transport=gas_transport(geom='nonlinear',
                                diam=8.245,
                                well_depth=542.04))

species(name='QOOH_2(25)',
        atoms='C:10 H:21 O:2',
        thermo=(NASA([100.00, 1038.56],
                     [-2.14086756E+00,  1.44151751E-01, -1.20332579E-04,
                       5.92998012E-08, -1.29800540E-11, -2.30597293E+04,
                       5.09923801E+01]),
                NASA([1038.56, 5000.00],
                     [ 1.23402772E+01,  8.83774510E-02, -3.97768127E-05,
                       7.58955308E-09, -5.32389449E-13, -2.60676172E+04,
                      -1.94185741E+01])),
        transport=gas_transport(geom='nonlinear',
                                diam=8.245,
                                well_depth=542.04))

species(name='QOOH_3(26)',
        atoms='C:10 H:21 O:2',
        thermo=(NASA([100.00, 1189.64],
                     [-2.42222895E+00,  1.46349033E-01, -1.18172776E-04,
                       5.28417619E-08, -1.01443708E-11, -2.17475697E+04,
                       5.10333630E+01]),
                NASA([1189.64, 5000.00],
                     [ 1.69399461E+01,  8.12473916E-02, -3.60883048E-05,
                       6.84285061E-09, -4.77957378E-13, -2.63544437E+04,
                      -4.57404911E+01])),
        transport=gas_transport(geom='nonlinear',
                                diam=8.245,
                                well_depth=542.04))

species(name='QOOH_4(27)',
        atoms='C:10 H:21 O:2',
        thermo=(NASA([100.00, 1189.64],
                     [-2.42222895E+00,  1.46349033E-01, -1.18172776E-04,
                       5.28417619E-08, -1.01443708E-11, -2.17475697E+04,
                       5.10333630E+01]),
                NASA([1189.64, 5000.00],
                     [ 1.69399461E+01,  8.12473916E-02, -3.60883048E-05,
                       6.84285061E-09, -4.77957378E-13, -2.63544437E+04,
                      -4.57404911E+01])),
        transport=gas_transport(geom='nonlinear',
                                diam=8.245,
                                well_depth=542.04))

species(name='QOOH_5(28)',
        atoms='C:10 H:21 O:2',
        thermo=(NASA([100.00, 1028.85],
                     [-2.34158835E+00,  1.48921234E-01, -1.28677368E-04,
                       6.51209081E-08, -1.44998706E-11, -2.22374367E+04,
                       4.94740542E+01]),
                NASA([1028.85, 5000.00],
                     [ 1.33014312E+01,  8.81039246E-02, -4.00097405E-05,
                       7.66688352E-09, -5.39173974E-13, -2.54563105E+04,
                      -2.64394337E+01])),
        transport=gas_transport(geom='nonlinear',
                                diam=8.217,
                                well_depth=540.319))

species(name='QOOH_6(29)',
        atoms='C:10 H:21 O:2',
        thermo=(NASA([100.00, 1036.24],
                     [-2.31190691E+00,  1.48128561E-01, -1.27547901E-04,
                       6.41332728E-08, -1.41729217E-11, -2.08152743E+04,