units(length='cm', time='s', quantity='mol', act_energy='kcal/mol')

ideal_gas(name='gas',
          elements="H D T C Ci O Oi N Ne Ar He Si S Cl X",
          species="""N2          Ar          Ne          nC10H22(1)
                     O2(2)       CH(3)       C2H(4)      O(5)
                     CO(6)       CO2(7)      H2O(8)      CH2O(9)
                     CH4(10)     C2H4(11)    C3H6(12)    H2(13)
                     iC4H8(14)   C5H11(15)   C4H9(16)    C7H15(17)
                     C7H14(18)   C4H8(19)    C6H12(20)   C6H13(21)
                     CHO(22)     C2H6(23)    C5H1O(24)   C6H6(26)
                     C6H5(27)    C4H6(28)    C4H6(29)    H2O2(30)
                     HO2(31)     CH3(32)     C2H5(33)    CH3OH(34)
                     CH2OH(35)   CH3O(36)    C2H2(37)    HCCO(38)
                     C2H3(39)    CH2CO(40)   C3H5(41)    C3H7(42)
                     C3H4(43)    C6H11O(44)  C10H20(45)  R_1(46)
                     R_2(47)     R_3(48)     R_4(49)     R_5(50)
                     H_1(51)     ROO_1(52)   ROO_2(53)   ROO_3(54)
                     ROO_4(55)   ROO_5(56)   QOOH_1(57)  QOOH_2(58)
                     QOOH_3(59)  QOOH_4(60)  QOOH_5(61)  QOOH_6(62)
                     QOOH_7(63)  QOOH_8(64)  QOOH_9(65)  S(66)
                     S(67)       S(68)       S(69)       S(70)
                     S(71)       S(72)       S(73)       S(74)
                     S(75)       S(76)       S(77)       S(78)
                     S(79)       S(80)       S(81)       S(82)
                     S(83)       S(84)       S(85)       S(86)
                     S(87)       S(88)       S(89)       S(90)
                     S(91)       S(92)       S(93)       S(94)
                     S(95)       S(96)       S(97)       S(98)
                     S(99)       S(100)      S(101)      S(102)
                     S(103)      S(104)      S(105)      S(106)
                     S(107)      S(108)      S(109)      S(110)
                     S(111)      S(112)      S(113)      S(114)
                     S(115)      S(116)      S(117)      S(118)
                     S(119)      S(120)      S(121)      S(122)
                     S(123)      S(124)      S(125)      S(126)
                     S(127)      S(128)      S(129)      S(130)
                     S(131)      S(132)      S(133)      S(134)
                     S(135)      S(136)      S(137)      S(138)
                     S(139)      S(140)      S(141)      S(142)
                     S(143)      S(144)      S(145)      S(146)
                     S(147)      S(148)      S(149)      S(150)
                     S(151)      S(152)      S(153)      S(154)
                     S(155)      S(156)      S(157)      S(158)
                     S(159)      S(160)      S(161)      S(162)
                     S(163)      S(164)      S(165)      S(166)
                     S(167)      S(168)      S(169)      S(170)
                     S(171)      S(172)      S(173)      S(174)
                     S(175)      S(176)      S(177)      S(178)
                     S(179)      S(180)      S(181)      S(182)
                     S(183)      S(184)      S(185)      S(186)
                     S(187)      S(188)      S(189)      S(190)
                     S(191)      S(192)      S(193)      S(194)
                     S(195)      S(196)      S(197)      S(198)
                     S(199)      S(200)      S(201)      S(202)
                     S(203)      S(204)      S(205)      S(206)
                     S(207)      S(208)      S(209)      S(210)
                     S(211)      S(212)      S(213)      S(214)
                     S(215)      S(216)      S(217)      S(218)
                     S(219)      S(220)      S(221)      S(222)
                     S(223)      S(224)      S(225)      S(226)
                     S(227)      S(228)      S(229)      S(230)
                     S(231)      S(232)      S(233)      S(234)
                     S(235)      S(236)      S(237)      S(238)
                     S(239)      S(240)      S(241)      S(242)
                     S(243)      S(244)      OH_1(245)   S(246)
                     S(247)      S(248)      S(249)      S(250)
                     S(251)      S(252)      S(253)      S(254)
                     S(255)      S(256)      S(257)      S(258)
                     S(259)      S(260)      S(261)      S(262)
                     S(263)      S(264)      S(265)      S(266)
                     S(267)      S(268)      S(269)      S(270)
                     S(271)      S(272)      S(273)      S(274)
                     S(275)      S(276)      S(277)      S(278)
                     S(279)      S(280)      S(281)      S(282)
                     S(283)      S(284)      S(285)      S(286)
                     S(287)      S(288)      S(289)      RO_1(290)
                     RO_2(291)   RO_3(292)   RO_4(293)   RO_5(294)
                     He(295)     HOCO(296)   CH2(297)    CH2(298)
                     HCOH(299)   CH3OO(300)  C(301)      CH4O2(302)
                     CH3O2(303)  C2H4O(304)  C2H5O(305)  S(306)
                     C2H3O(307)  H2CC(308)   C2H4O(309)  C2H5O(310)
                     C2H4O(311)  S(312)      S(313)      CHCHO(314)
                     S(315)      HCCOH(316)  C2H3O(317)  C2(318)
                     C2O(319)    C2H6O(320)  C2H5O(321)  S(322)
                     CH3CO(323)  C2H3O(324)  HOCHO(325)  S(326)
                     OCHCO(327)  S(328)      S(329)      S(330)
                     CH3O2(331)  OCHO(332)   S(333)      S(334)
                     C3H3(335)   C4H2(336)   nC4H3(337)  iC4H3(338)
                     pC3H4(339)  C3H5(340)   C3H5(341)   C4H4(342)
                     C4H6(343)   C3H4O(344)  nC4H5(345)  iC4H5(346)
                     nC3H7(347)  C4H7(348)   C3H8(349)   C4H81(350)
                     C4H6(351)   C5H5(352)   C7H7(353)   C7H8(354)
                     iC4H7(355)  cC3H4(356)  lC5H7(357)  C3H6O(358)
                     C3H3O(359)  C3H6O(360)  C3H6O(361)  H2C4O(362)
                     C6H2(363)   C6H3(364)   C6H4(365)   C6H4(366)
                     C4H5O(367)  C4H5(368)   C5H6(369)   C4H5O(370)
                     C4H6O(371)  C4H6O(372)  C4H6(373)   C4H6O(374)
                     C4H6O(375)  C4H4O(376)  pC4H9(377)  iC4H9(378)
                     C4H10(379)  C4H10(380)  tC4H9(381)  C7H7(382)
                     C7H7O(383)  C7H6O(384)  C7H8O(385)  C6H6O(386)
                     C6H5O(387)  C7H8O(388)  C7H5O(389)  S(390)
                     C5H4O(391)  C5H5O(392)  C5H5O(393)  C5H5O(394)
                     C5H6O(395)  C4H5(396)   C5H9(397)   C5H8(398)
                     C5H10(399)  cC5H9(400)  cC5H8(401)  C5H9(402)
                     C5H8(403)   C5H9(404)   C5H9(405)   C5H11(406)
                     C5H11(407)  C5H12(408)  C6H11(409)  C6H10(410)
                     C6H12(411)  C6H11(412)  C6H11(413)  C6H11(414)
                     C6H13(415)  C6H13(416)  C6H14(417)  C7H13(418)
                     C7H14(419)  C7H15(420)  C7H15(421)  C7H15(422)
                     C7H16(423)  C8H15(424)  C8H16(425)  C8H17(426)
                     C8H17(427)  C8H17(428)  C8H17(429)  C8H18(430)
                     C9H17(431)  C9H18(432)  C9H19(433)  C9H19(434)
                     C9H19(435)  C9H19(436)  C9H19(437)  C9H20(438)
                     S(439)      S(440)      S(441)      S(442)
                     S(443)      S(444)      S(445)      S(446)
                     S(447)      S(448)      S(449)      S(450)
                     S(451)      S(452)      S(453)      S(454)
                     S(455)      S(456)      S(457)      S(458)
                     S(459)      S(460)      S(461)      C9H17(462)
                     S(463)      C8H15(464)  C7H13(465)  C6H11(466)
                     S(467)      S(468)      C7H13(469)  C7H13(470)
                     C7H14(471)  S(472)      S(473)      S(474)
                     S(475)      S(476)      S(477)      S(478)
                     S(479)      C9H16(480)  C8H14(481)  S(482)
                     C7H12(483)  S(484)      C6H10(485)  S(486)
                     S(487)      S(488)      S(489)      S(490)
                     S(491)      C8H15(492)  S(493)      C8H15(494)
                     S(495)      C8H15(496)  S(497)      C8H15(498)
                     S(499)      C7H12(500)  S(501)      C8H15(502)
                     S(503)      C6H10(504)  C7H12(505)  C8H14(506)
                     C8H14(507)  C7H12(508)  C9H18(509)  C9H18(510)
                     C9H18(511)  C6H11(512)  C6H12(513)  C9H17(514)
                     C9H17(515)  C9H17(516)  C9H17(517)  C9H17(518)
                     C9H17(519)  C9H17(520)  C9H17(521)  C9H17(522)
                     C9H17(523)  C9H17(524)  C9H17(525)  C9H17(526)
                     C7H13(527)  C9H17(528)  C9H17(529)  C7H13(530)
                     C9H17(531)  C7H13(532)  C9H17(533)  C9H17(534)
                     C7H13(535)  C9H17(536)  C9H17(537)  C6H10(538)
                     C8H16(539)  C8H16(540)  C5H9(541)   C5H10(542)
                     C8H15(543)  C8H15(544)  C8H15(545)  C8H15(546)
                     C8H15(547)  C8H15(548)  C8H15(549)  C8H15(550)
                     C8H15(551)  C8H15(552)  C8H15(553)  C8H15(554)
                     C8H15(555)  C6H11(556)  C6H11(557)  C6H11(558)
                     C8H15(559)  C6H11(560)  C8H15(561)  C8H15(562)
                     C8H15(563)  C8H15(564)  C6H10(565)  C8H15(566)
                     C7H15(567)  C7H15(568)  C7H14(569)  C7H14(570)
                     C4H7(571)   C7H13(572)  C7H13(573)  C7H13(574)
                     C7H13(575)  C7H13(576)  C7H13(577)  C7H13(578)
                     C7H13(579)  C7H13(580)  C7H13(581)  C7H13(582)
                     C7H13(583)  C7H13(584)  C5H9(585)   C7H13(586)
                     C5H8(587)   C7H13(588)  C7H13(589)  C5H8(590)
                     C6H12(591)  S(592)      S(593)      S(594)
                     S(595)      C6H11(596)  C6H11(597)  C6H11(598)
                     C6H9(599)   C6H8(600)   C6H9(601)   C6H7(602)
                     C5H11(603)  C5H7(604)   S(605)      S(606)
                     S(607)      S(608)      S(609)      S(610)
                     S(611)      S(612)      S(613)      S(614)
                     S(615)      S(616)      CH*(617)    C3H5O(626)
                     S(628)      S(644)      S(646)      S(651)
                     C3H5O(667)  S(713)      S(715)      C4H8O(728)
                     S(733)      S(734)      C4H7O(772)  C4H7O(774)
                     C4H6O(777)  C4H8O(778)  C4H7O(782)  S(914)
                     S(921)      S(922)      S(931)      S(932)
                     C2H4(1303)  S(1584)     S(1892)     S(2660)
                     S(2671)     S(2728)     S(3479)     S(3480)
                     S(3562)     S(3563)     S(3583)     S(3644)
                     S(3645)     S(3661)     S(3662)     S(3716)
                     S(3717)     S(3726)     S(3727)     S(3728)
                     S(3835)     S(3837)     S(4250)     S(4271)
                     S(4437)     S(4438)     S(4439)     S(4462)
                     S(4482)     S(4483)     S(4507)     S(4527)
                     S(4563)     S(4661)     S(4682)     S(4684)
                     S(4720)     S(4747)     S(4755)     S(4780)
                     S(4801)     S(4827)     S(4924)     S(4953)
                     S(5045)     S(5079)     S(5117)     S(5172)
                     S(5176)     S(5196)     S(5197)     S(5228)
                     S(5245)     S(5295)     S(5325)     S(5385)
                     S(5826)     S(5941)     S(6133)     S(6152)
                     S(6178)     S(6188)     S(6189)     S(6204)
                     S(6205)     S(6206)     S(6207)     S(6209)
                     S(6213)     S(6216)     S(6218)     S(6234)
                     S(6236)     S(6238)     S(6239)     S(6246)
                     S(6247)     S(6493)     S(7056)     S(7169)
                     S(7330)     S(7331)     S(7334)     S(7335)
                     S(7336)     S(7650)     S(7773)     S(7805)
                     S(7837)     S(7868)     S(7928)     S(8257)
                     S(8260)     S(8273)     S(8276)     S(8903)
                     S(8942)     S(8944)     S(8946)     S(8948)
                     S(8950)     S(8954)     S(9222)     S(9386)
                     S(9397)     S(9401)     S(9423)     S(9436)
                     S(9457)     S(9490)     S(9763)     S(9769)
                     S(9824)     S(10004)    S(10014)    S(10035)
                     S(10045)    S(10074)    S(10095)    S(10137)
                     S(10330)    S(10421)    S(10422)    S(10437)
                     S(10457)    S(10467)    S(10478)    S(10499)
                     S(10582)    S(10663)    S(10766)    S(10802)
                     S(10820)    S(11017)    S(11018)    S(11127)
                     S(11204)    S(11210)    S(11211)    S(11283)
                     S(11388)    S(11411)    S(11492)    S(11557)
                     S(11668)    S(11674)    S(11677)    S(11697)
                     S(11717)    S(11748)    S(11773)    S(11799)
                     S(11836)    S(11854)    S(11872)    S(11883)
                     S(11884)    S(11986)    S(12007)    S(12082)
                     S(12108)    S(12209)    S(12211)    S(12241)
                     S(12370)    S(12835)    S(12852)    S(13019)
                     S(13026)    S(13043)    S(13069)    S(13225)
                     S(13263)    S(13298)    S(13534)    S(13535)
                     S(13545)    S(13607)    S(13608)    S(13646)
                     S(13722)    S(13844)""",
          reactions='all',
          transport='Mix',
          initial_state=state(temperature=300.0, pressure=OneAtm))

#-------------------------------------------------------------------------------
# Element data
#-------------------------------------------------------------------------------

element(symbol='Ci', atomic_mass=13.003)
element(symbol='D', atomic_mass=2.014)
element(symbol='Oi', atomic_mass=18.0)
element(symbol='T', atomic_mass=3.016)
element(symbol='X', atomic_mass=195.083)
#-------------------------------------------------------------------------------
# Species data
#-------------------------------------------------------------------------------

species(name='N2',
        atoms='N:2',
        thermo=(NASA([100.00, 1817.04],
                     [ 3.61262577E+00, -1.00892952E-03,  2.49898347E-06,
                      -1.43375499E-09,  2.58635395E-13, -1.05110288E+03,
                       2.65270399E+00]),
                NASA([1817.04, 5000.00],
                     [ 2.97590593E+00,  1.64140468E-03, -7.19719150E-07,
                       1.25377103E-10, -7.91522188E-15, -1.02584593E+03,
                       5.53754353E+00])),
        transport=gas_transport(geom='linear',
                                diam=3.621,
                                well_depth=97.53,
                                polar=1.76,
                                rot_relax=4.0))

species(name='Ar',
        atoms='Ar:1',
        thermo=(NASA([100.00, 4383.16],
                     [ 2.50000000E+00, -2.38914167E-13,  3.12709494E-16,
                      -1.33367320E-19,  1.74989654E-23, -7.45000000E+02,
                       4.36630363E+00]),
                NASA([4383.16, 5000.00],
                     [ 2.50003447E+00, -3.04996987E-08,  1.01101187E-11,
                      -1.48796738E-15,  8.20356170E-20, -7.45031138E+02,
                       4.36608535E+00])),
        transport=gas_transport(geom='atom',
                                diam=3.33,
                                well_depth=136.5))

species(name='Ne',
        atoms='Ne:1',
        thermo=(NASA([200.00, 1000.00],
                     [ 2.50000000E+00,  0.00000000E+00,  0.00000000E+00,
                       0.00000000E+00,  0.00000000E+00, -7.45375000E+02,
                       3.35532000E+00]),
                NASA([1000.00, 6000.00],
                     [ 2.50000000E+00,  0.00000000E+00,  0.00000000E+00,
                       0.00000000E+00,  0.00000000E+00, -7.45375000E+02,
                       3.35532000E+00])),
        transport=gas_transport(geom='atom',
                                diam=3.758,
                                well_depth=148.6))

species(name='nC10H22(1)',
        atoms='C:10 H:22',
        thermo=(NASA([298.00, 1391.00],
                     [-2.08417000E+00,  1.22535000E-01, -7.76816000E-05,
                       2.49835000E-08, -3.23548000E-12, -3.43022000E+04,
                       4.42260000E+01]),
                NASA([1391.00, 5000.00],
                     [ 3.19882000E+01,  4.77245000E-02, -1.62276000E-05,
                       2.50963000E-09, -1.45216000E-13, -4.66393000E+04,
                      -1.40504000E+02])),
        transport=gas_transport(geom='nonlinear',
                                diam=7.303,
                                well_depth=455.009))

species(name='O2(2)',
        atoms='O:2',
        thermo=(NASA([100.00, 1087.71],
                     [ 3.53763683E+00, -1.22827485E-03,  5.36758541E-06,
                      -4.93128012E-09,  1.45955076E-12, -1.03799025E+03,
                       4.67179818E+00]),
                NASA([1087.71, 5000.00],
                     [ 3.16427290E+00,  1.69453611E-03, -8.00335082E-07,
                       1.59029911E-10, -1.14890904E-14, -1.04844569E+03,
                       6.08302655E+00])),
        transport=gas_transport(geom='linear',
                                diam=3.467,
                                well_depth=106.7))

species(name='CH(3)',
        atoms='C:1 H:1',
        thermo=(NASA([200.00, 1000.00],
                     [ 3.47159000E+00,  4.04745000E-04, -1.89388000E-06,
                       3.33210000E-09, -1.51271000E-12,  7.07018000E+04,
                       2.14542000E+00]),
                NASA([1000.00, 3000.00],
                     [ 2.66195000E+00,  1.70245000E-03, -6.83824000E-07,
                       1.30980000E-10, -9.71843000E-15,  7.09589000E+04,
                       6.52673000E+00])),
        transport=gas_transport(geom='linear',
                                diam=2.75,
                                well_depth=80.0))

species(name='C2H(4)',
        atoms='C:2 H:1',
        thermo=(NASA([200.00, 1000.00],
                     [ 2.89868000E+00,  1.32988000E-02, -2.80733000E-05,
                       2.89485000E-08, -1.07502000E-11,  6.70616000E+04,
                       6.18548000E+00]),
                NASA([1000.00, 6000.00],
                     [ 3.66270000E+00,  3.82492000E-03, -1.36633000E-06,
                       2.13455000E-10, -1.23217000E-14,  6.71684000E+04,
                       3.92206000E+00])),
        transport=gas_transport(geom='linear',
                                diam=4.1,
                                well_depth=209.0,
                                rot_relax=2.5))

species(name='O(5)',
        atoms='O:1',
        thermo=(NASA([100.00, 4383.16],
                     [ 2.50000000E+00, -2.38914167E-13,  3.12709494E-16,
                      -1.33367320E-19,  1.74989654E-23,  2.92267216E+04,
                       5.11106770E+00]),
                NASA([4383.16, 5000.00],
                     [ 2.50003447E+00, -3.04996987E-08,  1.01101187E-11,
                      -1.48796738E-15,  8.20356170E-20,  2.92266905E+04,
                       5.11084942E+00])),
        transport=gas_transport(geom='atom',
                                diam=2.75,
                                well_depth=80.0))

species(name='CO(6)',
        atoms='C:1 O:1',
        thermo=(NASA([100.00, 1669.91],
                     [ 3.59709776E+00, -1.02424814E-03,  2.83338958E-06,
                      -1.75827500E-09,  3.42593462E-13, -1.43431899E+04,
                       3.45821758E+00]),
                NASA([1669.91, 5000.00],
                     [ 2.92790884E+00,  1.81937225E-03, -8.35341035E-07,
                       1.51276009E-10, -9.88923938E-15, -1.42926827E+04,
                       6.51184709E+00])),
        transport=gas_transport(geom='linear',
                                diam=3.69,
                                well_depth=91.7,
                                polar=1.76,
                                rot_relax=4.0))

species(name='CO2(7)',
        atoms='C:1 O:2',
        thermo=(NASA([100.00, 988.19],
                     [ 3.27789883E+00,  2.75786865E-03,  7.12771566E-06,
                      -1.07852526E-08,  4.14218887E-12, -4.84756030E+04,
                       5.97857134E+00]),
                NASA([988.19, 5000.00],
                     [ 4.55072680E+00,  2.90725847E-03, -1.14641692E-06,
                       2.25794394E-10, -1.69523485E-14, -4.89860152E+04,
                      -1.45670000E+00])),
        transport=gas_transport(geom='linear',
                                diam=3.941,
                                well_depth=195.201))

species(name='H2O(8)',
        atoms='H:2 O:1',
        thermo=(NASA([100.00, 1281.44],
                     [ 3.99881998E+00, -5.54830883E-04,  2.76774197E-06,
                      -1.55664942E-09,  3.02330299E-13, -3.02745569E+04,
                      -3.08941329E-02]),
                NASA([1281.44, 5000.00],
                     [ 3.19560339E+00,  1.95240061E-03, -1.67118548E-07,
                      -2.97937699E-11,  4.45138523E-15, -3.00687021E+04,
                       4.04334673E+00])),
        transport=gas_transport(geom='nonlinear',
                                diam=2.641,
                                well_depth=809.102,
                                polar=1.76,
                                rot_relax=4.0))

species(name='CH2O(9)',
        atoms='C:1 H:2 O:1',
        thermo=(NASA([200.00, 1000.00],
                     [ 4.79372000E+00, -9.90833000E-03,  3.73220000E-05,
                      -3.79285000E-08,  1.31773000E-11, -1.43792000E+04,
                       6.02798000E-01]),
                NASA([1000.00, 6000.00],
                     [ 3.16953000E+00,  6.19321000E-03, -2.25056000E-06,
                       3.65976000E-10, -2.20149000E-14, -1.45487000E+04,
                       6.04208000E+00])),
        transport=gas_transport(geom='nonlinear',
                                diam=3.59,
                                well_depth=498.0,
                                rot_relax=2.0))

species(name='CH4(10)',
        atoms='C:1 H:4',
        thermo=(NASA([200.00, 1000.00],
                     [ 5.14826000E+00, -1.37002000E-02,  4.93749000E-05,
                      -4.91952000E-08,  1.70097000E-11, -1.02453000E+04,
                      -4.63323000E+00]),
                NASA([1000.00, 6000.00],
                     [ 1.91179000E+00,  9.60268000E-03, -3.38388000E-06,
                       5.38797000E-10, -3.19307000E-14, -1.00992000E+04,
                       8.48242000E+00])),
        transport=gas_transport(geom='nonlinear',
                                diam=3.746,
                                well_depth=141.4,
                                polar=2.6,
                                rot_relax=13.0))

species(name='C2H4(11)',
        atoms='C:2 H:4',
        thermo=(NASA([200.00, 1000.00],
                     [ 3.95920000E+00, -7.57051000E-03,  5.70990000E-05,
                      -6.91588000E-08,  2.69884000E-11,  5.08978000E+03,
                       4.09730000E+00]),
                NASA([1000.00, 6000.00],
                     [ 3.99183000E+00,  1.04834000E-02, -3.71721000E-06,
                       5.94628000E-10, -3.53630000E-14,  4.26866000E+03,
                      -2.69082000E-01])),
        transport=gas_transport(geom='nonlinear',
                                diam=3.971,
                                well_depth=280.8,
                                rot_relax=1.5))

species(name='C3H6(12)',
        atoms='C:3 H:6',
        thermo=(NASA([298.00, 1000.00],
                     [ 1.49331000E+00,  2.09252000E-02,  4.48679000E-06,
                      -1.66891000E-08,  7.15815000E-12,  1.07483000E+03,
                       1.61453000E+01]),
                NASA([1000.00, 5000.00],
                     [ 6.73226000E+00,  1.49083000E-02, -4.94990000E-06,
                       7.21202000E-10, -3.76620000E-14, -9.23570000E+02,
                      -1.33133000E+01])),
        transport=gas_transport(geom='nonlinear',
                                diam=4.982,
                                well_depth=266.801,
                                rot_relax=1.0))

species(name='H2(13)',
        atoms='H:2',
        thermo=(NASA([100.00, 1962.86],
                     [ 3.42253780E+00,  2.86646024E-04, -4.14662326E-07,
                       4.27541429E-10, -9.38102659E-14, -1.02978492E+03,
                      -3.86364902E+00]),
                NASA([1962.86, 5000.00],
                     [ 2.74214292E+00,  5.79597460E-04,  1.97175640E-07,
                      -6.41040149E-11,  4.95963521E-15, -5.52011412E+02,
                       4.14362224E-01])),
        transport=gas_transport(geom='linear',
                                diam=2.833,
                                well_depth=59.7))

species(name='iC4H8(14)',
        atoms='C:4 H:8',
        thermo=(NASA([298.00, 1000.00],
                     [ 2.64714000E+00,  2.59030000E-02,  8.19854000E-06,
                      -2.21933000E-08,  8.89586000E-12, -4.03731000E+03,
                       1.26764000E+01]),
                NASA([1000.00, 5000.00],
                     [ 4.46095000E+00,  2.96115000E-02, -1.30771000E-05,
                       2.65719000E-09, -2.01347000E-13, -5.00668000E+03,
                       1.06715000E+00])),
        transport=gas_transport(geom='nonlinear',
                                diam=5.238,
                                well_depth=351.146))

species(name='C5H11(15)',
        atoms='C:5 H:11',
        thermo=(NASA([298.00, 1000.00],
                     [-4.79207000E-01,  5.74354000E-02, -4.84093000E-05,
                       2.53870000E-08, -6.16554000E-12,  1.88414000E+04,
                       3.00430000E+01]),
                NASA([1000.00, 5000.00],
                     [ 1.36419000E+01,  1.85580000E-02, -5.11222000E-06,
                       7.02796000E-10, -3.91545000E-14,  1.46724000E+04,
                      -4.35770000E+01])),
        transport=gas_transport(geom='nonlinear',
                                diam=5.734,
                                well_depth=367.022))

species(name='C4H9(16)',
        atoms='C:4 H:9',
        thermo=(NASA([298.00, 1000.00],
                     [ 6.94284000E-01,  3.31133000E-02,  6.29426000E-06,
                      -2.70253000E-08,  1.19893000E-11,  6.41757000E+03,
                       2.62798000E+01]),
                NASA([1000.00, 3000.00],
                     [ 9.42638000E+00,  2.19190000E-02, -7.28684000E-06,
                       1.06303000E-09, -5.56495000E-14,  3.19659000E+03,
                      -2.24061000E+01])),
        transport=gas_transport(geom='nonlinear',
                                diam=5.176,
                                well_depth=357.002,
                                rot_relax=1.0))

species(name='C7H15(17)',
        atoms='C:7 H:15',
        thermo=(NASA([298.00, 1382.00],
                     [-3.79156000E-02,  7.56727000E-02, -4.07474000E-05,
                       9.32679000E-09, -4.92361000E-13, -2.35605000E+03,
                       3.37322000E+01]),
                NASA([1382.00, 5000.00],
                     [ 2.16369000E+01,  3.23325000E-02, -1.09274000E-05,
                       1.68357000E-09, -9.71774000E-14, -1.05874000E+04,
                      -8.52210000E+01])),
        transport=gas_transport(geom='nonlinear',
                                diam=6.366,
                                well_depth=402.997))

species(name='C7H14(18)',
        atoms='C:7 H:14',
        thermo=(NASA([100.00, 1093.68],
                     [ 5.16528092E-01,  6.46821022E-02, -1.31157735E-05,
                      -1.94273733E-08,  9.49365085E-12, -1.17682827E+04,
                       2.95503245E+01]),
                NASA([1093.68, 5000.00],
                     [ 1.25233763E+01,  4.44655452E-02, -1.78891606E-05,
                       3.29346992E-09, -2.28557014E-13, -1.58118601E+04,
                      -3.59302174E+01])),
        transport=gas_transport(geom='nonlinear',
                                diam=6.24,
                                well_depth=412.931))

species(name='C4H8(19)',
        atoms='C:4 H:8',
        thermo=(NASA([298.00, 1000.00],
                     [ 1.25943000E+00,  2.78084000E-02,  8.70139000E-06,
                      -2.44022000E-08,  9.89777000E-12, -2.96477000E+03,
                       2.05011000E+01]),
                NASA([1000.00, 5000.00],
                     [ 8.27977000E-01,  3.58645000E-02, -1.66345000E-05,
                       3.47328000E-09, -2.66574000E-13, -3.05210000E+03,
                       2.13425000E+01])),
        transport=gas_transport(geom='nonlinear',
                                diam=5.289,
                                well_depth=359.053))

species(name='C6H12(20)',
        atoms='C:6 H:12',
        thermo=(NASA([100.00, 1047.22],
                     [ 1.27613864E+00,  4.86048357E-02,  5.05475230E-06,
                      -3.27836758E-08,  1.37433446E-11, -8.93586514E+03,
                       2.38829403E+01]),
                NASA([1047.22, 5000.00],
                     [ 1.07487831E+01,  3.74726307E-02, -1.48805976E-05,
                       2.74930883E-09, -1.92394263E-13, -1.22934165E+04,
                      -2.88123103E+01])),
        transport=gas_transport(geom='nonlinear',
                                diam=5.925,
                                well_depth=395.365))

species(name='C6H13(21)',
        atoms='C:6 H:13',
        thermo=(NASA([298.00, 1380.00],