"""
 "Experimental and Detailed Kinetic Model for the Oxidation of a Gas to Liquid
 Jet Fuel"
 Philippe Dagaut, Florent Karsenty, Guillaume Dayma, Pascal Divart, Kamal Hadj-
 Ali, Amir Mz-Ahmed,
 Centre National de la Recherche Scientifique, 1C, Avenue de la Recherche
 Scientifique - 45071 Orlans Cedex 2 - France
 Marina Braun-Unkhoff, Jrgen Herzler, Trupti Kathrotia, Thomas Kick, Clemens
 Naumann, Uwe Riedel, Levi Thomas
 Institute of Combustion Technology, German Aerospace Center (DLR),
 Pfaffenwaldring 38-40, 70569 Stuttgart, Germany
 On exchange from Wright Patterson Air Force Base - Ohio, USA

"""

units(length='cm', time='s', quantity='mol', act_energy='cal/mol')

ideal_gas(name='gas',
          elements="C H O N Ar",
          species="""hxol              h2                o2
                     co                co2               ch2o
                     c2h4              ch4               c2h6
                     c2h2              c3h8              c3h6
                     c4h10             c4h8              nc5h12
                     ic4h8             c5h10             c6h14
                     c6h12-1           ch3hco            ethco
                     acrol             c4h6              c6h6
                     nc3h7hco          nc4h9hco          c5h11hco
                     ch3oh             c2h4o             pbz
                     pch               h2o               CPD
                     chxone            chxe2oA           chxe3oA
                     cyc6h10           che24one          chxoqjB
                     aceton            c2h5coc2h3        mche1
                     toluen            phc2h5            styren
                     c6h5oh            phhco             isope
                     h                 o                 oh
                     ho2               h2o2              n2
                     ar                ch3               ch2
                     sch2              ch                C
                     ch3o              ch2oh             hco
                     ch3o2             ch3o2h            o2cho
                     ho2cho            ocho              hocho
                     hoch2o            c2h5              c2h3
                     c2h               c2                c2o
                     ch3co             ch2hco            ch2co
                     hcco              ch3co2            ch3co3
                     ch3co3h           c2h5oh            c2h5o
                     c2h5o2            c2h5o2h           c2h4o2h
                     c2h2oh            hccoh             chocho
                     choco             c2h3o             pc2h4oh
                     o2c2h4oh          ch3choh           nc3h7
                     ic3h7             ac3h5             tc3h5
                     sc3h5             pc3h4             ac3h4
                     c3h3              c3h2              nc3h7o
                     nc3h7oh           ic3h7o            c3h6o
                     c3h6o1-3          c3h5o             c3h4oh
                     c3h4o2h           c3h4o             c3h3o
                     c3h5o2h           c3h5e1q2          c2h5co
                     c2h3co            ch2coch3          c3h5oh
                     c3h6oh            o2c3h6oh          ch3chco
                     ch2ch2hco         o2c2h4hco         ho2c2h4co
                     ho2c2h4hco        oc2h4hco          ch3cocho
                     ch3coco           ch2cohco          hcoch2hco
                     hcoch2co          ch3coch2o2        ch3coch2o
                     ch3coch2o2h       propynal          c2hco
                     ic4h9             tc4h9             ic4h7
                     c4h4o             c3h4hco           c3h3hco
                     c3h3co            pc4h9             sc4h9
                     t2c4h8            c2c4h8            Ac4h7-1
                     Cc4h7-1           Dc4h7-1           butyne
                     butyn2            meall             ic4h5
                     nc4h5             c4h4              nc4h3
                     ic4h3             c4h2              c3h7co
                     c4h7oh            ac3h5hco          ac3h5co
                     c2h3chcho         c4h8o2            butanone
                     mvk               ch2coc2h3         mhd
                     h2c4o             c4h               c4h6o2h
                     hoc4h6            ch3chch2hco       c3h6cho-1
                     ch3coc2h4p        ch3coc2h4o2       ch3coc2h4o2h
                     ch3coc2h4o        c2h5coch2         c2h5coch2o2
                     c2h5coch2o2h      c2h5coch2o        c4h7hco-1
                     c4h7co-1          c4h8hco-2         c4h7hco-2
                     c4h7co-2          Ac5h11            Bc5h11
                     Cc5h11            c2c5h10           t2c5h10
                     Ac5h9-1           Bc5h9-1           Cc5h9-1
                     Dc5h9-1           Ec5h9-1           Dc5h9-2
                     nc4h9co           c3h7coch3         c5h9oh
                     c5h8-12           c5h8-13           c5h8-14
                     c5h7              ch3coc3h6o2-1     ch3coc3h6o2h-1
                     ch3coc3h6o-1      isoph             isopy
                     Ac6h13            Bc6h13            Cc6h13
                     c6h12-2           c6h12-3           Cc6h11-1
                     Fc6h11-1          Ac6h11-3          Bc6h11-3
                     c6h10-13          c6h10-15          c6h9
                     c5h11co           nc7h16            Ac7h15
                     Bc7h15            Cc7h15            Dc7h15
                     c7h14-1           c7h14-2           c7h14-3
                     c7h12-13          c7h12-16          Cc7h13-1
                     Dc7h13-2          Ec7h13-3          Dc7h13-1
                     Ac7h13-3          c6h13hco          c6h13co
                     c7h14rohAB        c7h14qjohAB       c7h14rohBC
                     c7h14qjohBC       c7h14rohCD        c7h14qjohCD
                     p2c4h614          p2c4h513          P2c4h4134
                     nc8h18            Ac8h17            Bc8h17
                     Cc8h17            Dc8h17            c8h16-1
                     c8h16-2           c8h16-3           c8h16-4
                     Cc8h15-1          Hc8h15-1          Dc8h15-2
                     Ec8h15-3          c8h14             c8h16rohAB
                     c8h16rohBC        c8h16rohCD        c8h16rohDE
                     c8h16qjohAB       c8h16qjohBC       c8h16qjohCD
                     c8h16qjohDE       c7h15hco          c7h15co
                     nc9h20            Ac9h19            Bc9h19
                     Cc9h19            Dc9h19            Ec9h19
                     c9h18-1           c9h18-2           c9h18-3
                     c9h18-4           Cc9h17-1          Dc9h17-2
                     Ec9h17-3          Fc9h17-4          c9h16
                     c8h17hco          c8h17co           nc10h22
                     Ac10h21           Bc10h21           Cc10h21
                     Dc10h21           Ec10h21           c10h20-1
                     c10h20-2          c10h20-3          c10h20-4
                     c10h20-5          Cc10h19-1         Dc10h19-2
                     Ec10h19-3         Fc10h19-4         c10h20rohAB
                     c10h20qjohAB      c10h20rohBC       c10h20qjohBC
                     c10h20rohCD       c10h20qjohCD      c10h20rohDE
                     c10h20qjohDE      c10h20rohEF       c10h20qjohEF
                     cyc6h12           cyc6h11           cyc6h9
                     Bchxone           Cchxone           Dchxone
                     Dchxe2oA          Fc6e1oC           c6e5oA
                     c6e5oyA           Ac6e5oC           Ac6e5oB
                     Ac6e3e5oB         mch               mchA
                     mchB              Amche1            Cmche1
                     Dmche1            BmchohA           mchohAqjB
                     mche13            mche14            Emche13
                     Gmche13           Fmche14           Gmche14
                     mche135           mche136           mche1oC
                     mchoA             mche2oA           chxco
                     mche2oya          mchoAoC           mchoyAoC
                     mchoAoD           mchoyAoD          AmchoD
                     AmchoC            Gc7h13-1          c7e6oyA
                     Gc7e1oC           Ec5e1oC           Ac7e6oB
                     Gc7e1oD           Ac5e4oB           Gc7e1oF
                     c6h7C             Lc6h7             Lc6h6
                     Lc6h4             U-c6h5            chxe1rD
                     chd13             chd14             cyc6h9o
                     Fc6e3oAoE         Dc6e5oAoC         Fc6e5oA
                     Fc6e2oA           Fc6h9-13          hex135
                     sc3h5co           Ac6h9-15          c5h5
                     c5h4oh            c5h5o             c5h4o
                     cyc5h7            cyc5h8            hex1245
                     c6h615            mc6h6             fulvene
                     c6h5              c6h5o             c6h4o2
                     c6h5o2            c6h5o2h           c6h3o2
                     c6h3o3            c5h4              c5h3
                     phch2             phch2oh           phch2o
                     phco              hoc6h4ch3         oc6h4ch3
                     Aphc2h4           Bphc2h4           ASTYRYL
                     BSTYRYL           phc2h             c6h4c2h3
                     phch2hco          phch2co           phcoch2
                     c6h5cco           pbzjA             pbzjB
                     pbzjC             BPHPROPY          phc3h5-1
                     phc3h5-2          phc3h4            phc3h3
                     phc2h4hco         phc2h4co          phch2coch2
                     phcoc2h4          phc2h2hco         phc2h2co
                     phcoc2h3          Bphc3h5ohA        Aphc3h5ohB
                     Cphc3h5ohB        Bphc3h5ohC        pbzohAqjB
                     pbzohBqjA         pbzohBqjC         pbzohCqjB
                     Cophc3h4-1        Aophc3h4-2        ch3c6h4c2h3
                     ch3c6h4c2h5       c14h14            napht
                     biphenyl          c10h9             c10h10
                     c6h4c2h           A1c2hAC           A2-X
                     A2O               A2oh              A1c2h3AC
                     indenyl           pchA              pchB
                     pchC              pchD              pchE
                     pchF              pchG              pchqjA
                     pchqjB            pchqjC            pchqjD
                     pchqjE            pchqjF            pchqjG
                     pchqA             pchqB             pchqC
                     pchqD             pchqE             pchqF
                     pchqG             pchojA            pchojB
                     pchojC            pchojD            pchojE
                     pchojF            pchojG            ApchqA
                     BpchqA            CpchqA            DpchqA
                     EpchqA            FpchqA            GpchqA
                     ApchqB            BpchqB            CpchqB
                     DpchqB            EpchqB            FpchqB
                     GpchqB            ApchqC            BpchqC
                     CpchqC            DpchqC            EpchqC
                     FpchqC            GpchqC            ApchqD
                     BpchqD            CpchqD            EpchqD
                     FpchqD            GpchqD            ApchqE
                     BpchqE            CpchqE            DpchqE
                     EpchqE            FpchqE            GpchqE
                     HpchqE            ApchqF            BpchqF
                     CpchqF            DpchqF            EpchqF
                     FpchqF            GpchqF            ApchqG
                     BpchqG            CpchqG            DpchqG
                     EpchqG            FpchqG            GpchqG
                     IpchqE            HpchqF            IpchqF
                     pchqAqjA          pchqAqjB          pchqAqjC
                     pchqAqjD          pchqAqjE          pchqAqjF
                     pchqAqjG          pchqBqjA          pchqBqjB
                     pchqBqjC          pchqBqjD          pchqBqjE
                     pchqBqjF          pchqBqjG          pchqCqjA
                     pchqCqjB          pchqCqjC          pchqCqjD
                     pchqCqjE          pchqCqjF          pchqCqjG
                     pchqDqjA          pchqDqjB          pchqDqjC
                     pchqDqjE          pchqDqjF          pchqDqjG
                     pchqEqjA          pchqEqjB          pchqEqjC
                     pchqEqjD          pchqEqjE          pchqEqjF
                     pchqEqjG          pchqEqjH          pchqEqjI
                     pchqFqjA          pchqFqjB          pchqFqjC
                     pchqFqjD          pchqFqjE          pchqFqjF
                     pchqFqjG          pchqFqjH          pchqFqjI
                     pchqGqjA          pchqGqjB          pchqGqjC
                     pchqGqjD          pchqGqjE          pchqGqjF
                     pchqGqjG          pchoAqB           pchoAqC
                     pchoAqD           pchoAqE           pchoBqA
                     pchoBqC           pchoBqD           pchoBqE
                     pchoBqF           pchoCqA           pchoCqB
                     pchoCqD           pchoCqE           pchoCqF
                     pchoCqG           pchoEqA           pchoEqB
                     pchoEqC           pchoEqD           pchoEqF
                     pchoEqG           pchoEqH           pchoEqI
                     pchoFqA           pchoFqB           pchoFqC
                     pchoFqD           pchoFqE           pchoFqG
                     pchoFqH           pchoFqI           pchoGqC
                     pchoGqD           pchoGqE           pchoGqF
                     pchoAojB          pchoAojC          pchoAojD
                     pchoBojA          pchoBojC          pchoBojD
                     pchoBojE          pchoCojA          pchoCojB
                     pchoCojD          pchoCojE          pchoCojF
                     pchoEojA          pchoEojB          pchoEojC
                     pchoEojD          pchoEojF          pchoEojG
                     pchoEojH          pchoEojI          pchoFojA
                     pchoFojB          pchoFojC          pchoFojD
                     pchoFojE          pchoFojG          pchoFojH
                     pchoFojI          pchoGojD          pchoGojE
                     pchoGojF          ApchohB           BpchohA
                     BpchohC           CpchohB           CpchohD
                     DpchohC           DpchohE           EpchohD
                     EpchohF           FpchohE           FpchohG
                     GpchohF           pcho-AB           pcho-BC
                     pcho-CD           pcho-DE           pcho-EF
                     pcho-FG           pcho-AC           pcho-AD
                     pcho-AE           pcho-AF           pcho-BD
                     pcho-BE           pcho-BF           pcho-BG
                     pcho-CE           pcho-CF           pcho-CG
                     pcho-DF           pcho-DG           pcho-EG
                     pcho-EI           pcho-FH           pcho-EH
                     ApchoB            BpchoA            ApchoC
                     CpchoA            DpchoA            ApchoE
                     EpchoA            ApchoF            FpchoA
                     BpchoC            CpchoB            DpchoB
                     EpchoB            BpchoE            BpchoF
                     FpchoB            BpchoG            GpchoB
                     DpchoC            CpchoE            EpchoC
                     CpchoF            FpchoC            CpchoG
                     GpchoC            DpchoE            DpchoF
                     DpchoG            EpchoF            FpchoE
                     EpchoG            GpchoE            EpchoH
                     HpchoE            IpchoE            FpchoG
                     GpchoF            HpchoF            pche1
                     pche2             pche3             pche4
                     pche5             pche6             Apche2
                     Dpche2            Cpche4            Dpche5
                     Epche6            Fpche7            pche2ojA
                     pche1ojC          pche2ojD          pche3ojB
                     pche4ojC          pche3ojE          pche4ojF
                     pche6ojE          pche5ojG          pche7ojF
                     Ao2pchohB         Bo2pchohA         Bo2pchohC
                     Co2pchohB         Co2pchohD         Do2pchohC
                     Do2pchohE         Eo2pchohD         Eo2pchohF
                     Fo2pchohE         Fo2pchohG         Go2pchohF
                     pche1e3           pche2e4           pche3e5
                     pche4e6           pche5e7           pchoA
                     pchoyA            pchoB             pchoC
                     pchoE             pchoF             pchoG
                     DpchqBqE          FpchqBqE          GpchqBqE
                     IpchqBqE          DpchqCqE          FpchqCqE
                     GpchqCqE          HpchqCqE          IpchqCqE
                     DpchqCqF          EpchqCqF          GpchqCqF
                     HpchqCqF          IpchqCqF          ApchqDqF
                     BpchqDqF          CpchqDqF          GpchqDqF
                     HpchqDqF          BpchqEqG          CpchqEqG
                     DpchqEqG          FpchqEqG          HpchqEqG
                     IpchqEqG          BpchqEqH          CpchqEqH
                     DpchqEqH          FpchqEqH          GpchqEqH
                     IpchqEqH          BpchqEqI          CpchqEqI
                     GpchqEqI          CpchqFqH          DpchqFqH
                     EpchqFqH          Dc6e5oA           Fc9oAoG
                     Fc9oAoH           MeDc8oCoIrH       MeDc8oBoIrH
                     MeEc8oAoFrI       EtDc7oEoIrA       Fc9oAoE
                     MeEc8oDoIrA       c9oyAoF           EtDc7oAoCrI
                     EtDc7oAoHrI       MeEc8oAoDrI       EtDc7oCoIrA
                     Ac9oBoF           Ac9oDoF           Fc9oAoD
                     MeEc8oCoIrA       MeEc8oAoCrI       EtDc7oBoIrA
                     Ac9oCoF           MeEc8oBoIrA       Fc9oAoC
                     c9oAoGqjF         Hc9oAoGqF         c9oAoGqFqjH
                     c9oAoGoFqH        c7oyAoBoG         c6oyAoF
                     Ec5oA             c5oAqjE           Cc5oAqE
                     Bc5oAqE           c5oAqEqjC         c5oAqEqjB
                     c5oAoEqC          c5oAoEqB          Ac7oBoG
                     c7oBoGqjA         Cc7oBoGqA         Dc7oBoGqA
                     c7oBoGqAqjC       c7oBoGqAqjD       c7oAoBoGqC
                     c7oAoBoGqD        EtDc7oEoIqjA      CEtDc7oEoIqA
                     DEtDc7oEoIqA      EtDc7oEoIqAqjC    EtDc7oEoIqAqjD
                     EtDc7oAoEoIqC     EtDc7oAoEoIqD     Cc6oAoD
                     MeCc6oAoDoG       MeCc6oyAoDoG      MeCc6oAoDoyG
                     c6oAoCoF          c6oyAoCoF         c6oAoCoyF
                     Ec5oAoD           Ec5oAoC           MeBc5oAoCrF
                     c9oAoCqjF         Dc9oAoCqF         c9oAoCqFqjD
                     c9oAoCoFqD        c6oAoC            c6oyAoC
                     MeEc8oAoCqjI      DMeEc8oAoCqI      GMeEc8oAoCqI
                     MeEc8oAoCqIqjD    MeEc8oAoCqIqjG    MeEc8oAoCoIqD
                     MeEc8oAoCoIqG     MeBc5oAoF         MeBc5oyAoF
                     c9oDoFqjA         Cc9oDoFqA         c9oDoFqAqjC
                     c9oAoDoFqC        EtDc7oArI         EtDc7oAqjI
                     DEtDc7oAqI        EtDc7oAqIqjD      EtDc7oAoIqD
                     c7oAoD            c7oyAoD           EtDc7oIrA
                     EtDc7oIqjA        CEtDc7oIqA        DEtDc7oIqA
                     EtDc7oIqAqjC      EtDc7oIqAqjD      EtDc7oAoIqC
                     MeEc8oArI         MeEc8oAqjI        DMeEc8oAqI
                     FMeEc8oAqI        MeEc8oAqIqjD      MeEc8oAqIqjF
                     MeEc8oAoIqD       MeEc8oAoIqF       MeCc6oAoG
                     MeCc6oyAoG        MeCc6oAoyG        Bc6oAoF
                     MeEc8oIrA         Fc9oA             MeEc8oIqjA
                     CMeEc8oIqA        DMeEc8oIqA        MeEc8oIqAqjC
                     MeEc8oIqAqjD      MeEc8oAoIqC       c9oAqjF
                     Cc9oAqF           Dc9oAqF           Hc9oAqF
                     c9oAqFqjC         c9oAqFqjD         c9oAqFqjH
                     c9oAoFqC          c9oAoFqD          c9oAoFqH
                     MeBc5oArF         pchoBqjE          CpchoBqE
                     pchoBqEqjC        pchoBoEqC         pchoEqjB
                     DpchoEqB          pchoEqBqjD        pchoBoEqD
                     c7e6oA            Ec7e6oA           c5e4oB
                     Cc5e4oB           c7e6oAoE          c7e6oyAoE
                     Dc7oA             c7e3oA            c7e4oyA
                     Cc5e4oA           c6e5oAo4          c6e5oyAo4
                     c5e4oAoC          c5e4oyAoC         c6alCco
                     MeCc6oBoGrA       c7e6oAoD          c7e6oyAoD
                     c9e5oAoD          c9e5oyAoD         c9e6oAoD
                     c9e6oyAoD         Ac8e5oC           c6e5oAoC
                     c6e5oyAoC         Gic7al            Ac6oC
                     Gpc7al            Bc5oA             ch2coch2hco
                     c7e6oAoC          c7e6oyAoC         Cc6oA
                     Ipc9oAoB          c2h4cohco         c6e5oAoB
                     c6e5oyAoB         Bc5oAoC           Ac7oD
                     Ac7oBoD           Ec7e6oAoB         chxoAoC
                     chxoAoD           BchxoAoC          DchxoAoC
                     c6oAoBoyF         Ec5oAoB           Fc6e1oCoE
                     DchxoqB           chxoqBqjD         chxoAoBojD
                     chxoAoBqD         Fc6oAoDoE         Fc6oAoCoD
                     FpchqDqE          pche5qD           pche5ojD
                     c9e1qAoF          c9e1ojAoF         Dc5oBohE
                     c5oBqjDohE        c4oAoC            c4oyAoC
                     Fc9e1qDqF         Iic9e1qDqI        c9e1oFqD
                     c9e1oFojD         EtDc7e1oIqD       EtDc7e1oIojD
                     c7e1oD            Cc7e1oD           Ipche4e6
                     Dpche5e7          Ipche5e7          BchxoAoD
                     chxe2oAoD         Echxe2oAoD        c6e1oCoyF
                     c6e2e5oyAoD       Ic9oAoD           Gc7oAoD
                     Ic9oBoD           Gc7oBoD           Ac5oBoD
                     MeDc6oBoGrF       Bc5oAoD           MeEc8e1oIqG
                     MeEc8e1oIojG      MeEc6e1oGrF       Fc9e1qEqH
                     c9e1e5qH          c9e1e5ojH         c7e1e6qC
                     c7e1e6ojC         Cc7h11-16         c9e5oAqH
                     c9e5oAojH         HpchqBqE          pche4qB
                     pche4ojB          mche1qC           mche1ojC
                     MeBc4e1oErD       ch2ccho           pche5qB
                     pche5ojB          Amche3            Gc7e1e3
                     Fc9e1qAqH         c7e1e6qA          Bc7e6oA
                     Ic9oCoD           Gc7oCoD           Ac5oBoC
                     MeDc6oCoGrF       MeEc8e1oIqF       MeEc8e1oIojF
                     Bc6e5oA           chxe1qC           chxe1ojC
                     chchhco           c9e5oAqG          c9e5oAojG
                     c7e2oAoG          c7e2oyAoG         c7e2oAoyG
                     c7e1oAoG          c7e1oAoyG         Fc6e1oA
                     Dc4e1oA           Fc9e1qEqG         c9e1e6qE
                     c9e1e6ojE         c9e1e5qG          c9e1e5ojG
                     c7e2e6oA          c7e2e6oyA         c5e2oA
                     c5e2oyA           EtDc7e1qEqHrI     EtDc7e1e8qE
                     EtDc7e1e8ojE      MeCc6oAoDrG       pche3qF
                     pche3ojF          MeEc8e5oArI       EtDc7e4oIrA
                     MeEc7e6e8oA       MeEc7e6e8oyA      MeCc6e3oArG
                     MeCc6e1e7rF       MeCc5e4e5oA       MeCc5e4e5oyA
                     MeEc8e8oAqF       MeEc8e8oAojF      Ec6e5oA
                     MeBc6e7oAoF       MeBc6e7oAoyF      MeBc6e7oyAoF
                     MeBc5e6oArE       ic3h4hco          EtDc7e1oIqE
                     EtDc7e1oIojE      MeCc6e5oAoG       MeCc6e5oyAoG
                     MeCc6e5oAoyG      MeBc5e4oArF       Cc6e5oA
                     Dc7oAoC           c3h7chco          EtDc7e9oAqC
                     EtDc7e9oAojC      c9e5oAqC          c9e5oAojC
                     MeCc6e1oG         MeCc6e1oyG        c7e3oyA
                     chxoAqC           chxoAojC          Fc6oAoC
                     Fc6oAoE           AmchqBqD          mche1qD
                     mche1ojD          MeEc6e5oArG       MeCc6e7oArF
                     MeCc4e3oArE       pche6qD           pche6ojD
                     Ac9e2oF           Ac9e3oF           Ac7e1oD
                     Ic9e3oA           Gc7e3oA           Ic9e4oA
                     MeDc8e9oArH       MeDc6e7oArF       Dc5e4oA
                     EtDc7e9oArG       Gc7e4oA           Ec5e4oA
                     MeDc6e5oArG       Dc9e8oA           EtDc7e6oArI
                     Dc7e6oA           Gc7e1oE           Ic9e3oB
                     Gc7e3oB           MeDc8e9oBrH       MeDc6e7oBrF
                     Dc5e4oB           Ic9e4oB           EtDc7e9oBrG
                     Gc7e4oB           Ec5e4oB           MeDc6e5oBrG
                     Dc9e8oB           EtDc7e6oBrI       Dc7e6oB
                     MeDc8e7oBrI       MeDc8e9oCrH       MeCc6e7oDrA
                     Bc5e1oC           eche1oD           c9e6oyA
                     Ic9e3oE           Hc8h15-3          Ac7e4oC
                     Ic9e4oC           EtDc7e9oCrH       Gc7e4oC
                     Ac5e1oC           MeCc6e1oDrG       Ac9e6oB
                     Gc7h13-3          Ac9e6oD           Ac7e4oB
                     EtDc7e6oCrI       Dc9e8oC           Dc7e1oE
                     eche1oF           Ac9e6oC           MeDc8e7oCrI
                     MeEc8e9oDrA       MeCc6e7oBrA       mche1oD
                     MeEc8e9oCrA       MeEc8e9oyA        MeCc6e7oyA
                     MeBc5e1rF         MeDc7e8rA         mche1oE
                     MeEc8e9oBrH       Ac9e5oC           MeEc6e5oBrG
                     Ac9e5oD           Ac7e3oB           EtDc7e1oCrI
                     Dc7e1oC           EtDc7e9oyA        EtCc6e1rH
                     MeEc8e1oDrI       MeEc8e1oyI        c6e1e5oC
                     Ec8h15-1          Ac9e5oB           EtDc7e9oBrA
                     MeCc6e1rG         EtDc7e1oHrI       Fc9e1oE
                     c7e1e6oC          c9e5oyA           EtDc7e9oCrA
                     Ac8h15-4          EtBc5e7oyA        Fc9e1oC
                     MeEc8e1oCrI       EtDc7e1oyI        MeDc7e1rH
                     Fc9e1oD           c7e1e6oD          ch2cco
                     EtDc7e3oIrG       Etall             EpchqDqB
                     Fc6e1e4           mche1qDqF         mche1qDojF
                     MeEc8e9oAqC       MeEc6e5oAqCrG     Dc4oAqC
                     MeCc6e7oAqErF     MeCc6e5e7oA       MeCc6e5e7oyA
                     MeBc5e1e4rF       MeEc8e9oAojC      MeCc6e7oA
                     Ic9e3qFqH         c9e1e6qD          c9e1e6ojD
                     c6e3oA            c6e3oyA           BchxqAqC
                     c9e6oAqE          c9e6oAojE         MeEc8e1oIqD
                     MeEc8e1oIojD      pche5qH           pche5ojH
                     EtDc7e1oIrC       pche4qH           pche4ojH
                     MeEc8e9oArD       c9e6oAqD          c9e6oAojD
                     BchxqAqD          chxe1qD           chxe1ojD
                     ac3h4hco1         pche6qI           pche6ojI
                     MeEc8e1oIrC       pche5qI           pche5ojI
                     Fc9e4oA           c7e4e6oA          c7e4e6oyA
                     Ec6h9-13          AchxqBqD          c9e6oAqC
                     c9e6oAojC         c7e4oA            chxe1qjC
                     Echxe1qC          chxe1qCqjE        chxe1oCqE
                     chxe1oCojE        c6e2e5oA          c6e2e5oyA
                     c8h15hco          c8h15co           c9oAoF
                     MeEc8oAoI         MeEc8oyAoI        MeEc8oAoyI
                     EtDc7oAoI         EtDc7oyAoI        EtDc7oAoyI
                     c9e8oD            Hc8oD             MeDc7oHrA
                     Ec8oA             EtCc6oArH         MeDc7oArH
                     c5oAoE            c5oyAoE           eche1
                     ech               ch2ch2ch2hco      Ac5oB
                     eche1e3           c2h3coc2h4        AechoE
                     AechoB            etvinket          eche1oE
                     bmepral           bme1bu            bme2bu
                     bddm2pe           dddm1pe           dddm2pe
                     bddmpe2           bbdtmpe1          bddm3pe2
                     bddm1pe1          bmepryl           bme2b1
                     cme2b1            nec5h11           dddmpe2
                     bbdtmpe3          dddm2pe1          bddtmpe2
                     bddtmpe1          bddm1pe3          bddm2pe3
                     dddm2pe2          dm2my1pe          dddm1pe3
                     bddm2pe1          dddm1pe2          oc7h14