!SUBMITTED TO COMBUSTION AND FLAME 2010
!"A JET FUEL SURROGATE FORMULATED BY REAL FUEL PROPERTIES"
!STEPHEN DOOLEY, SANG HEE WON, MARCOS CHAOS, JOSHUA HEYNE, YIGUANG JU, FREDERICK L. DRYER, KAMAL KUMAR, CHIH-JEN SUNG, HAOWEI WANG, MATTHEW A. OEHLSCHLAEGER, ROBERT J. SANTORO AND THOMAS A. LITZINGER
!!!!!!!!!!!!!!!!!!!!!!!!!!!!!!!!!!!!!!!!!!!!!!!!!!!!!!!!!!!!!!!!!!!!!!!!!!!!!!!!!!!!!!!!!!!!!!!!!!!!!!!!!!!!!!!!!!!!!!!!!!!!!!!!!
!THIS MODEL IS FOR THE SIMULATION OF N-DECANE/ISO-OCTANE/TOLUENE MIXTURES, DEVELOPED FOR THE SIMULATION OF JET-A OXIDATION.
!COMPONENTS ARE: PRINCETON C0-C4: H2/O2 OF LI ET AL. + C1 OF ZHAO ET AL. + C1-C4 OF HEALEY ET AL + C4 ALKENYL OF LASKIN E AL., SEE METCALFE, DOOLEY, DRYER WIPP PROC. COMBUST. INT. 2010
!IC8 FROM MARCO MEHL AND CO-WORKERS LAWRENCE LIVERMORE NATIONAL LABORATORY (PRIVATE COMMUNICATION, CONTACT AUTHOR FOR REPRODUCTION, SUBMITTED TO PROC. COMBUST. INT. 2010)
!NC10 OF WESTBROOK ET AL. COMBUST. FLAME 2009 
!TOLUENE/AROMATIC CHEMISTRY FROM PRINCETON UNIVERSITY, METCALFE, DOOLEY, DRYER 2010 IN PREPERATION, SEE METCALFE, DOOLEY, DRYER WIPP PROC. COMBUST. INT. 2010.
!STEPHEN DOOLEY, PRINCETON UNIVERSITY 10TH JANUARY  2010.
!!!!!!!!!!!!!!!!!!!!!!!!!!!!!!!!!!!!!!!!!!!!!!!!!!!!!!!!!!!!!!!!!!!!!!!!!!!!!!!!!!!!!!!!!!!!!!!!!!!!!!!!!!!!!!!!!!!!!!!!!!!!!!!!!
THERMO
   300.000  1000.000  5000.000
(CH2O)3            70590C   3H   6O   3     G  0300.00   4000.00  1500.00      1
 0.01913678E+03 0.08578044E-01-0.08882060E-05-0.03574819E-08 0.06605143E-12    2
-0.06560876E+06-0.08432507E+03-0.04662286E+02 0.06091547E+00-0.04710536E-03    3
 0.01968843E-06-0.03563271E-10-0.05665404E+06 0.04525265E+03                   4
(CH3)2SICH2        61991H   8C   3SI  1     G  0300.00   2500.00  1500.00      1
 0.01547852E+03 0.01065700E+00-0.01234345E-05-0.01293352E-07 0.02528715E-11    2
-0.06693076E+04-0.05358884E+03 0.02027522E+02 0.04408673E+00-0.03370024E-03    3
 0.01484466E-06-0.02830898E-10 0.03931454E+05 0.01815821E+03                   4
AL                 62987AL  1               G  0300.00   5000.00  0600.00      1
 0.02559589E+02-0.01063224E-02 0.07202828E-06-0.02121105E-09 0.02289429E-13    2
 0.03890214E+06 0.05234522E+02 0.02736825E+02-0.05912374E-02-0.04033938E-05    3
 0.02322343E-07-0.01705599E-10 0.03886795E+06 0.04363880E+02                   4
AL2H6              62987AL  2H   6          G  0300.00   1500.00  0600.00      1
 0.02634884E+02 0.02135952E+00 0.03154151E-05-0.07684674E-07 0.02335832E-10    2
 0.08871346E+05 0.09827515E+02-0.06800681E+02 0.05080744E+00 0.01039747E-03    3
-0.01119582E-05 0.08459155E-09 0.01060537E+06 0.05554526E+03                   4
AL2ME6             62987AL  2C   6H  18     G  0300.00   1500.00  0600.00      1
 0.01773147E+03 0.04935747E+00 0.01196854E-04-0.01639826E-06 0.04890867E-10    2
-0.03855560E+06-0.05053298E+03-0.07159750E+01 0.01067109E+01 0.02117605E-03    3
-0.02193212E-05 0.01644144E-08-0.03515546E+06 0.03890763E+03                   4
ALAS               62987AL  1AS  1          G  0300.00   1500.00  0600.00      1
 0.04790027E+02-0.01908226E-03-0.01983390E-05 0.02239358E-08-0.06904706E-12    2
 0.05259290E+06 0.03259703E+02 0.05047764E+02-0.06419947E-02-0.01432071E-04    3
 0.04754391E-07-0.03297621E-10 0.05254264E+06 0.01985206E+02                   4
ALH                62987AL  1H   1          G  0300.00   5000.00  1000.00      1
 0.03392644E+02 0.01215399E-01-0.04676595E-05 0.08691625E-09-0.06022669E-13    2
 0.03006845E+06 0.02758899E+02 0.03071503E+02 0.02165549E-01-0.03275638E-04    3
 0.04136984E-07-0.01877121E-10 0.03021221E+06 0.04548855E+02                   4
ALH2               62987AL  1H   2          G  0300.00   1500.00  0600.00      1
 0.04486543E+02 0.03128832E-01-0.01969438E-05-0.01016030E-07 0.03497468E-11    2
 0.01960959E+06 0.08167897E+01 0.02442137E+02 0.09915913E-01 0.02471083E-05    3
-0.02119583E-06 0.01710234E-09 0.01997588E+06 0.01065270E+03                   4
ALH3               62987AL  1H   3          G  0300.00   1500.00  0600.00      1
 0.04186838E+02 0.06159249E-01-0.03877593E-06-0.02061928E-07 0.06600276E-11    2
 0.07908079E+05 0.05134396E+01 0.01008323E+02 0.01640324E+00 0.01976746E-04    3
-0.03528558E-06 0.02753378E-09 0.08484656E+05 0.01585838E+03                   4
ALME               62987AL  1C   1H   3     G  0300.00   1500.00  0600.00      1
 0.04662737E+02 0.07097939E-01 0.02520013E-05-0.02114863E-07 0.06097489E-11    2
 0.08203228E+05 0.01769245E+02 0.02664176E+02 0.01324914E+00 0.02525848E-04    3
-0.02394396E-06 0.01761855E-09 0.08574173E+05 0.01147449E+03                   4
ALME2              62987AL  1C   2H   6     G  0300.00   1500.00  0600.00      1
 0.06481282E+02 0.01474605E+00 0.05816529E-05-0.04621347E-07 0.01396041E-10    2
 0.03745072E+05-0.02603326E+02 0.09494573E+01 0.03206354E+00 0.06134021E-04    3
-0.06500042E-06 0.04911485E-09 0.04761408E+05 0.02419465E+03                   4
ALME3              62987AL  1C   3H   9     G  0300.00   1500.00  0600.00      1
 0.06654948E+02 0.02455144E+00 0.01176575E-04-0.07815023E-07 0.02255622E-10    2
-0.01340952E+06-0.03454481E+02-0.07027567E+01 0.04682764E+00 0.01149903E-03    3
-0.09160441E-06 0.06687294E-09-0.01203799E+06 0.03232771E+03                   4
AR                120186AR  1               G  0300.00   5000.00  1000.00      1
 0.02500000E+02 0.00000000E+00 0.00000000E+00 0.00000000E+00 0.00000000E+00    2
-0.07453750E+04 0.04366001E+02 0.02500000E+02 0.00000000E+00 0.00000000E+00    3
 0.00000000E+00 0.00000000E+00-0.07453750E+04 0.04366001E+02                   4
AR+               121286AR  1E  -1          G  0300.00   5000.00  1000.00      1
 0.02864864E+02-0.01203573E-02-0.01065199E-06 0.09074839E-10-0.09623876E-14    2
 0.01827230E+07 0.03543585E+02 0.02301341E+02 0.08035529E-02-0.01758806E-05    3
-0.01781093E-08-0.08937268E-13 0.01829281E+07 0.06659358E+02                   4
AS                 62987AS  1               G  0300.00   1500.00  0600.00      1
 0.02617011E+02 0.00000000E+00 0.00000000E+00 0.00000000E+00 0.00000000E+00    2
 0.03720455E+06 0.06995524E+02 0.02617011E+02 0.00000000E+00 0.00000000E+00    3
 0.00000000E+00 0.00000000E+00 0.03720455E+06 0.06995524E+02                   4
AS2                62987AS  2               G  0300.00   1500.00  0600.00      1
 0.04394201E+02 0.05389968E-02-0.02379401E-05-0.06541924E-09 0.05184186E-12    2
 0.02235094E+06 0.04897919E+02 0.03682892E+02 0.03121811E-01-0.01074052E-04    3
-0.05629472E-07 0.05178811E-10 0.02247356E+06 0.08283423E+02                   4
AS3                62987AS  3               G  0300.00   1500.00  0600.00      1
 0.07404036E+02 0.07818426E-02-0.03918297E-05-0.05203629E-09 0.06291907E-12    2
 0.03063825E+06-0.03417324E+02 0.06403142E+02 0.04477099E-01-0.01866642E-04    3
-0.07394750E-07 0.07012753E-10 0.03080965E+06 0.01337136E+02                   4
AS4                62987AS  4               G  0300.00   1500.00  0600.00      1
 0.09695766E+02 0.01306258E-01-0.05519564E-05-0.02150874E-08 0.01457935E-11    2
 0.01571732E+06-0.01618870E+03 0.07853761E+02 0.07916509E-01-0.02329820E-04    3
-0.01526312E-06 0.01377435E-09 0.01603629E+06-0.07409755E+02                   4
ASALME             62987AS  1AL  1C   1H   3G  0300.00   1500.00  0600.00      1
 0.07127107E+02 0.07357864E-01 0.02300796E-06-0.02226399E-07 0.06927227E-11    2
 0.03273438E+06-0.01847179E+02 0.04053423E+02 0.01726125E+00 0.01833498E-04    3
-0.03386953E-06 0.02626981E-09 0.03329309E+06 0.01299665E+03                   4
ASALME2            62987AS  1AL  1C   2H   6G  0300.00   1500.00  0600.00      1
 0.09909938E+02 0.01463850E+00 0.04118731E-05-0.04444658E-07 0.01329501E-10    2
 0.02815111E+06-0.01523531E+03 0.04808530E+02 0.03067687E+00 0.05048001E-04    3
-0.05908099E-06 0.04462290E-09 0.02908817E+06 0.09471621E+02                   4
ASGAET             62987AS  1GA  1C   2H   5G  0300.00   1500.00  0600.00      1
 0.09081073E+02 0.01674632E+00 0.01283130E-05-0.05590436E-07 0.01781315E-10    2
 0.03807443E+06-0.09142782E+02 0.06364698E+01 0.04382467E+00 0.06144686E-04    3
-0.09491641E-06 0.07374198E-09 0.03960893E+06 0.03164673E+03                   4
ASGAET2            62987AS  1GA  1C   4H  10G  0300.00   1500.00  0600.00      1
 0.01032429E+03 0.03073571E+00 0.01086335E-04-0.09971949E-07 0.02945979E-10    2
 0.03039490E+06-0.01316402E+03-0.03539248E+01 0.06369772E+00 0.01359742E-03    3
-0.01286142E-05 0.09572181E-09 0.03236903E+06 0.03865086E+03                   4
ASGAME             62987AS  1GA  1C   1H   3G  0300.00   1500.00  0600.00      1
 0.07322183E+02 0.06995479E-01 0.01069351E-05-0.01995283E-07 0.06040446E-11    2
 0.03949449E+06-0.07416680E+01 0.04877266E+02 0.01482559E+00 0.01652124E-04    3
-0.02712058E-06 0.02080196E-09 0.03994071E+06 0.01107670E+03                   4
ASGAME2            62987AS  1GA  1C   2H   6G  0300.00   1500.00  0600.00      1
 0.09352436E+02 0.01504820E+00 0.05157975E-05-0.04553518E-07 0.01348763E-10    2
 0.03735856E+06-0.01218114E+03 0.04382076E+02 0.03056345E+00 0.05477067E-04    3
-0.05834108E-06 0.04373509E-09 0.03827434E+06 0.01191111E+03                   4
ASGAMEH            62987AS  1GA  1C   1H   4G  0300.00   1500.00  0600.00      1
 0.07842794E+02 0.09682097E-01 0.01060306E-05-0.02991402E-07 0.09382673E-11    2
 0.04435297E+06-0.05093455E+02 0.03585119E+02 0.02336317E+00 0.02873356E-04    3
-0.04737895E-06 0.03674461E-09 0.04512703E+06 0.01547160E+03                   4
ASH                62987AS  1H   1          G  0300.00   1500.00  0600.00      1
 0.03219848E+02 0.01001250E-01-0.04874997E-08-0.01107653E-08-0.09254321E-13    2
 0.03008176E+06 0.06647311E+02 0.03865843E+02-0.01157571E-01-0.03494372E-05    3
 0.07079686E-07-0.06014028E-10 0.02996829E+06 0.03549869E+02                   4
ASH2               62987AS  1H   2          G  0300.00   1500.00  0600.00      1
 0.03428307E+02 0.03181140E-01 0.01460484E-05-0.07937145E-08 0.01694414E-11    2
 0.02010282E+06 0.02904703E+02 0.03778945E+02 0.01759233E-01 0.08070807E-05    3
 0.02358763E-07-0.03043521E-10 0.02004862E+06 0.01272974E+02                   4
ASH3               62987AS  1H   3          G  0300.00   1500.00  0600.00      1
 0.04172022E+02 0.04371323E-01 0.02177574E-05-0.01183264E-07 0.04536374E-11    2
 0.06882916E+05 0.02803477E+02 0.09446356E+01 0.01508469E+00 0.01201696E-04    3
-0.03397465E-06 0.02767656E-09 0.07459168E+05 0.01832268E+03                   4
ASME               62987AS  1C   1H   3     G  0300.00   1500.00  0600.00      1
 0.04657260E+02 0.06976298E-01 0.02147557E-05-0.02101159E-07 0.06082150E-11    2
 0.02806423E+06 0.03409835E+02 0.02625270E+02 0.01325242E+00 0.02441628E-04    3
-0.02419567E-06 0.01786944E-09 0.02844080E+06 0.01327336E+03                   4
ASME2              62987AS  1C   2H   6     G  0300.00   1500.00  0600.00      1
 0.05981395E+02 0.01521284E+00 0.06993355E-05-0.04721619E-07 0.01369912E-10    2
 0.01467985E+06 0.01192741E+02 0.01390400E+02 0.02923331E+00 0.06598871E-04    3
-0.05620560E-06 0.04130368E-09 0.01553302E+06 0.02349981E+03                   4
ASME3              62987AS  1C   3H   9     G  0300.00   1500.00  0600.00      1
 0.06347764E+02 0.02466454E+00 0.01154629E-04-0.07877436E-07 0.02202225E-10    2
-0.01617323E+05-0.06316786E+01 0.02667388E+01 0.04253171E+00 0.01165106E-03    3
-0.07914706E-06 0.05603127E-09-0.04685540E+04 0.02904591E+03                   4
B                  41894B   1               G  0300.00   5000.00  0800.00      1
 0.02503383E+02-0.08121395E-04 0.07407213E-07-0.02834495E-10 0.03869814E-14    2
 0.06659164E+06 0.04181591E+02 0.02492437E+02 0.07173135E-03-0.02060547E-05    3
 0.02420212E-08-0.01013891E-11 0.06659287E+06 0.04227817E+02                   4
BCL                41894B   1CL  1          G  0300.00   5000.00  0800.00      1
 0.04001821E+02 0.06522714E-02-0.02820285E-05 0.05743922E-09-0.04267682E-13    2
 0.01573491E+06 0.02513849E+02 0.03005683E+02 0.03288804E-01-0.01800237E-04    3
-0.07234565E-08 0.06265518E-11 0.01598586E+06 0.07617924E+02                   4
BCL2               41894B   1CL  2          G  0300.00   5000.00  0800.00      1
 0.06248610E+02 0.08992638E-02-0.04383754E-05 0.01043474E-08-0.08688548E-13    2
-0.01157220E+06-0.03348238E+02 0.03985663E+02 0.07054036E-01-0.03405414E-04    3
-0.03649284E-07 0.02823078E-10-0.01102621E+06 0.08154968E+02                   4
BCL3               41894B   1CL  3          G  0300.00   5000.00  1000.00      1
 0.08482454E+02 0.01749626E-01-0.07838212E-05 0.01549076E-08-0.01124484E-12    2
-0.05130908E+06-0.01450771E+03 0.04676745E+02 0.01206337E+00-0.08194415E-04    3
-0.07423063E-08 0.01788528E-10-0.05032570E+06 0.05021881E+02                   4
BE                 81392BE  1               G  0300.00   5000.00  1000.00      1
 0.02380618E+02 0.02339856E-02-0.01453949E-05 0.03111727E-09-0.01072959E-13    2
 0.03868083E+06 0.02787792E+02 0.02403493E+02 0.06166087E-02-0.01321925E-04    3
 0.01144806E-07-0.03437304E-11 0.03864894E+06 0.02549853E+02                   4
BE(S)              81392BE  1               S  0300.00   3000.00  1000.00      1
 0.01898768E+02 0.01629382E-01-0.03547406E-05 0.01247349E-08-0.01578507E-12    2
-0.06527011E+04-0.01020412E+03-0.09092963E+01 0.01585668E+00-0.02624182E-03    3
 0.02044924E-06-0.05872448E-10-0.02390556E+04 0.02598871E+02                   4
BE2SIO4(S)         81392BE  2O   4SI  1     S  0300.00   3000.00  1000.00      1
 0.01695617E+03 0.06266472E-01-0.02841325E-04 0.06379149E-08-0.04780890E-12    2
-0.02614324E+07-0.09398438E+03-0.06380159E+02 0.09333352E+00-0.01415477E-02    3
 0.01101948E-05-0.03462902E-09-0.02558671E+07 0.02162977E+03                   4
BE3B2O6(S)         81392B   2BE  3O   6     S  0300.00   3000.00  1000.00      1
 0.02640267E+03 0.01142674E+00-0.03773479E-04 0.04332047E-08 0.02356543E-12    2
-0.03849576E+07-0.01487137E+04-0.05230657E+02 0.01105769E+01-0.01614054E-02    3
 0.01447797E-05-0.05420786E-09-0.03755957E+07 0.01490974E+03                   4
BE3N2(A)           81392BE  3N   2          S  0300.00   3000.00  1000.00      1
 0.01097008E+03 0.06416846E-01-0.02938928E-04 0.04564651E-08-0.05509703E-13    2
-0.07519767E+06-0.06231286E+03-0.08167547E+02 0.08515091E+00-0.01355569E-02    3
 0.01060406E-05-0.03256815E-09-0.07110460E+06 0.03040606E+03                   4
BE3N2(L)           81392BE  3N   2          L  0300.00   4000.00  1000.00      1
 0.01610468E+03 0.00000000E+00 0.00000000E+00 0.00000000E+00 0.00000000E+00    2
-0.06338252E+06-0.08701469E+03 0.01610468E+03 0.00000000E+00 0.00000000E+00    3
 0.00000000E+00 0.00000000E+00-0.06338252E+06-0.08701468E+03                   4
BEAL2O4(S)         81392AL  2BE  1O   4     S  0300.00   2400.00  1000.00      1
 0.01118219E+03 0.01677777E+00-0.06692989E-04-0.01497360E-07 0.01203700E-10    2
-0.02810337E+07-0.06116527E+03-0.07257604E+02 0.01074554E+01-0.01713422E-02    3
 0.01295274E-05-0.03740965E-09-0.02780832E+07 0.02383770E+03                   4
BEB2O4             81392B   2BE  1O   4     G  0300.00   5000.00  1000.00      1
 0.01266018E+03 0.06883210E-01-0.02963169E-04 0.05694789E-08-0.04050458E-12    2
-0.01672990E+07-0.03636876E+03 0.04012008E+02 0.03052847E+00-0.02571938E-03    3
 0.09738810E-07-0.01450712E-10-0.01648983E+07 0.08399628E+02                   4
BEBO2              81392B   1BE  1O   2     G  0300.00   5000.00  1000.00      1
 0.06831273E+02 0.03424464E-01-0.01471236E-04 0.02825118E-08-0.02008790E-12    2
-0.06047559E+06-0.08730609E+02 0.02426203E+02 0.01572415E+00-0.01309160E-03    3
 0.04244447E-07-0.02562806E-11-0.05929016E+06 0.01394744E+03                   4
BEBR               81392BE  1BR  1          G  0300.00   5000.00  1000.00      1
 0.04166357E+02 0.04424462E-02-0.01713095E-05 0.03185381E-09-0.01964221E-13    2
 0.01313080E+06 0.03473875E+02 0.03178756E+02 0.03144181E-01-0.01989189E-04    3
-0.04871910E-08 0.06208255E-11 0.01337870E+06 0.08520506E+02                   4
BEBR2              81392BE  1BR  2          G  0300.00   5000.00  1000.00      1
 0.06814040E+02 0.07848450E-02-0.03497501E-05 0.06885841E-09-0.04984129E-13    2
-0.02974764E+06-0.06362110E+02 0.05216331E+02 0.05128972E-01-0.03678726E-04    3
 0.08525872E-09 0.05611721E-11-0.02932967E+06 0.01847829E+02                   4
BEBR2(S)           81392BE  1BR  2          S  0300.00   1500.00  1000.00      1
 0.07680161E+02 0.03193456E-01-0.02439097E-05-0.09487536E-08 0.03902210E-11    2
-0.04528092E+06-0.03282152E+03 0.05659917E+02 0.08805599E-01-0.02790316E-04    3
-0.04611400E-07 0.03007373E-10-0.04482571E+06-0.02263852E+03                   4
BECL               81392BE  1CL  1          G  0300.00   5000.00  1000.00      1
 0.04072243E+02 0.05328307E-02-0.02146892E-05 0.04097687E-09-0.02774848E-13    2
 0.05990792E+05 0.02639872E+02 0.03006275E+02 0.03385550E-01-0.02274674E-04    3
-0.01333438E-08 0.04447782E-11 0.06271131E+05 0.08126810E+02                   4
BECL2              81392BE  1CL  2          G  0300.00   5000.00  1000.00      1
 0.06656109E+02 0.09583935E-02-0.04248637E-05 0.08333911E-09-0.06016211E-13    2
-0.04547842E+06-0.08159565E+02 0.04835084E+02 0.05899051E-01-0.04307799E-04    3
 0.03113267E-08 0.05292957E-11-0.04499748E+06 0.01210616E+02                   4
BECL2(A)           81392BE  1CL  2          S  0300.00   1500.00  1000.00      1
 0.08380054E+02 0.02572312E-01-0.07554892E-05-0.02368242E-08 0.01042547E-11    2
-0.06177281E+06-0.03886076E+03 0.08074927E+01 0.03830225E+00-0.06255340E-03    3
 0.04645940E-06-0.01295143E-09-0.06052883E+06-0.03683825E+02                   4
BECL2(B)           81392BE  1CL  2          S  0300.00   1500.00  1000.00      1
 0.07791771E+02 0.02945389E-01-0.04237093E-05-0.05339604E-08 0.01505044E-11    2
-0.06231958E+06-0.03656698E+03 0.03004424E+02 0.02353211E+00-0.03553037E-03    3
 0.02706855E-06-0.08144728E-10-0.06136495E+06-0.01365758E+03                   4
BECLF              81392BE  1CL  1F   1     G  0300.00   5000.00  1000.00      1
 0.06393787E+02 0.01234948E-01-0.05412476E-05 0.01053150E-08-0.07557553E-13    2
-0.07104831E+06-0.07478512E+02 0.04405415E+02 0.06642228E-01-0.05154354E-04    3
 0.01063175E-07 0.02287810E-11-0.07051262E+06 0.02777586E+02                   4
BEF                81392BE  1F   1          G  0300.00   5000.00  1000.00      1
 0.03741370E+02 0.08524818E-02-0.03436428E-05 0.06466099E-09-0.04475089E-13    2
-0.02167667E+06 0.02968223E+02 0.02905108E+02 0.02952099E-01-0.02747617E-04    3
 0.01918800E-07-0.07179964E-11-0.02140972E+06 0.07407617E+02                   4
BEF2               81392BE  1F   2          G  0300.00   5000.00  1000.00      1
 0.06008875E+02 0.01636431E-01-0.07094651E-05 0.01370220E-08-0.09780462E-13    2
-0.09777056E+06-0.07723693E+02 0.03801759E+02 0.07737988E-01-0.06427724E-04    3
 0.02097328E-07-0.01462695E-11-0.09717092E+06 0.03660784E+02                   4
BEF2(L)            81392BE  1F   2          L  0300.00   2000.00  1000.00      1
 0.05976585E+02 0.04777009E-01-0.05064131E-05 0.05012404E-09 0.08570416E-13    2
-0.01251277E+07-0.02873833E+03-0.05587355E+01 0.03423905E+00-0.05210078E-03    3
 0.04099400E-06-0.01226767E-09-0.01239060E+07 0.02162308E+02                   4
BEH                81392BE  1H   1          G  0300.00   5000.00  1000.00      1
 0.03103757E+02 0.01443026E-01-0.05486383E-05 0.09992518E-09-0.06823073E-13    2
 0.03762032E+06 0.03113887E+02 0.03220220E+02 0.01660638E-01-0.03759811E-04    3
 0.05403578E-07-0.02433378E-10 0.03762484E+06 0.02536116E+02                   4
BEH+               81392BE  1H   1E  -1     G  0300.00   5000.00  1000.00      1
 0.02935026E+02 0.01642881E-01-0.06606950E-05 0.01253854E-08-0.08322438E-13    2
 0.01381605E+07 0.03342443E+02 0.03203174E+02 0.01918095E-01-0.04743515E-04    3
 0.06392785E-07-0.02736265E-10 0.01380944E+07 0.01849186E+02                   4
BEH2               81392BE  1H   2          G  0300.00   5000.00  1000.00      1
 0.03274395E+02 0.04312822E-01-0.01774785E-04 0.03298131E-08-0.02286391E-12    2
 0.01367913E+06 0.03758700E+01 0.01761472E+02 0.08827701E-01-0.01241923E-03    3
 0.01412574E-06-0.06176309E-10 0.01426447E+06 0.08573833E+02                   4
BEH2O2             81392BE  1H   2O   2     G  0300.00   5000.00  1000.00      1
 0.07694718E+02 0.04893975E-01-0.01780895E-04 0.03055611E-08-0.02009121E-12    2
-0.08403520E+06-0.01751820E+03 0.03118833E+02 0.01997183E+00-0.01673101E-03    3
 0.03275766E-07 0.01457848E-10-0.08305301E+06 0.05128545E+02                   4
BEH2O2(A)          81392BE  1H   2O   2     S  0300.00   1000.00  1000.00      1
 0.01357669E+03 0.00000000E+00 0.00000000E+00 0.00000000E+00 0.00000000E+00    2
-0.01138925E+07-0.07369071E+03-0.07121292E+02 0.08378375E+00-0.01435144E-02    3
 0.01164084E-05-0.03597983E-09-0.01091544E+07 0.02745148E+03                   4
BEH2O2(B)          81392BE  1H   2O   2     S  0300.00   1000.00  1000.00      1
 0.01357669E+03 0.00000000E+00 0.00000000E+00 0.00000000E+00 0.00000000E+00    2
-0.01142447E+07-0.07409333E+03-0.07121292E+02 0.08378375E+00-0.01435144E-02    3
 0.01164084E-05-0.03597983E-09-0.01095066E+07 0.02704887E+03                   4
BEI                81392BE  1I   1          G  0300.00   5000.00  1000.00      1
 0.04226574E+02 0.03948427E-02-0.01549696E-05 0.03023851E-09-0.01932301E-13    2
 0.01912832E+06 0.04229493E+02 0.03358791E+02 0.02864276E-01-0.01889889E-04    3
-0.04370942E-08 0.05986692E-11 0.01933641E+06 0.08627578E+02                   4
BEI2               81392BE  1I   2          G  0300.00   5000.00  1000.00      1
 0.06974217E+02 0.06094573E-02-0.02739783E-05 0.05428767E-09-0.03948833E-13    2
-0.09890086E+05-0.05063732E+02 0.05564008E+02 0.04472664E-01-0.03090745E-04    3
-0.02609722E-08 0.06750777E-11-0.09529549E+05 0.02158152E+02                   4
BEI2(S)            81392BE  1I   2          S  0300.00   1500.00  1000.00      1
 0.08868316E+02 0.02591978E-01-0.07796846E-05-0.02236952E-08 0.01016032E-11    2
-0.02556556E+06-0.03709859E+03 0.01301872E+02 0.03830115E+00-0.06255080E-03    3
 0.04645675E-06-0.01295046E-09-0.02432303E+06-0.01952190E+02                   4
BEN                81392BE  1N   1          G  0300.00   5000.00  1000.00      1
 0.03799137E+02 0.08135072E-02-0.03271826E-05 0.06267597E-09-0.04443547E-13    2
 0.05006582E+06 0.03013958E+02 0.02880282E+02 0.03157848E-01-0.02749300E-04    3
 0.01549304E-07-0.04944407E-11 0.05034622E+06 0.07854857E+02                   4
BEO(A)             81392BE  1O   1          S  0300.00   3500.00  1000.00      1
 0.04606101E+02 0.01465013E-01-0.09316989E-06-0.08839902E-09 0.01840163E-12    2
-0.07492927E+06-0.02579358E+03-0.01187545E+01 0.01231168E+00-0.02298405E-04    3
-0.09318502E-07 0.05331928E-10-0.07364786E+06-0.01151163E+02                   4
BEO(B)             81392BE  1O   1          S  0300.00   3500.00  1000.00      1
 0.04606101E+02 0.01465013E-01-0.09316989E-06-0.08839902E-09 0.01840163E-12    2
-0.07412403E+06-0.02545418E+03-0.01187545E+01 0.01231168E+00-0.02298405E-04    3
-0.09318502E-07 0.05331928E-10-0.07284262E+06-0.08117651E+01                   4
BEOH               81392BE  1H   1O   1     G  0300.00   5000.00  1000.00      1
 0.04580703E+02 0.02444079E-01-0.08794693E-05 0.01484750E-08-0.09530468E-13    2
-0.01534682E+06-0.01819725E+02 0.02577868E+02 0.08977628E-01-0.07867956E-04    3
 0.02536139E-07 0.06057864E-12-0.01489220E+06 0.08162645E+02                   4
BES(S)             81392BE  1S   1          S  0300.00   3000.00  1000.00      1
 0.04944107E+02 0.03098929E-01-0.01308985E-04 0.02564670E-08-0.01377673E-12    2
-0.03004408E+06-0.02521191E+03-0.03045166E+02 0.03934537E+00-0.06572406E-03    3
 0.05230436E-06-0.01590377E-09-0.02854032E+06 0.01256033E+03                   4
BESO4(A)           81392BE  1O   4S   1     S  0300.00   2300.00  1000.00      1
 0.02081235E+01 0.03035540E+00-0.07769396E-04-0.02942517E-07 0.01112249E-10    2
-0.01455278E+07 0.02609183E+01-0.08960041E+02 0.01179726E+01-0.02438390E-02    3
 0.02430177E-05-0.08722741E-09-0.01453005E+07 0.03410812E+03                   4
BESO4(B)           81392BE  1O   4S   1     S  0300.00   2300.00  1000.00      1
 0.02081235E+01 0.03035540E+00-0.07769396E-04-0.02942517E-07 0.01112249E-10    2
-0.01453939E+07 0.04157230E+01-0.08960041E+02 0.01179726E+01-0.02438390E-02    3
 0.02430177E-05-0.08722741E-09-0.01451667E+07 0.03426292E+03                   4
BESO4(GAM)         81392BE  1O   4S   1     S  0300.00   2300.00  1000.00      1
 0.02081235E+01 0.03035540E+00-0.07769396E-04-0.02942517E-07 0.01112249E-10    2
-0.01430422E+07 0.03005051E+02-0.08960041E+02 0.01179726E+01-0.02438390E-02    3
 0.02430177E-05-0.08722741E-09-0.01428148E+07 0.03685225E+03                   4
C                 121086C   1               G  0300.00   5000.00  1000.00      1
 0.02602087E+02-0.01787081E-02 0.09087041E-06-0.01149933E-09 0.03310844E-14    2
 0.08542154E+06 0.04195177E+02 0.02498585E+02 0.08085777E-03-0.02697697E-05    3
 0.03040729E-08-0.01106652E-11 0.08545878E+06 0.04753459E+02                   4
C(S)              121286C   1               S  0300.00   5000.00  1000.00      1
 0.01490166E+02 0.01662126E-01-0.06687204E-05 0.01290880E-08-0.09205334E-13    2
-0.07074019E+04-0.08717785E+02-0.06705661E+01 0.07181500E-01-0.05632921E-04    3
 0.02142299E-07-0.04168562E-11-0.07339498E+03 0.02601596E+02                   4
C+                120186C   1E  -1          G  0300.00   5000.00  1000.00      1
 0.02511827E+02-0.01735978E-03 0.09504268E-07-0.02218852E-10 0.01862189E-14    2
 0.02166772E+07 0.04286130E+02 0.02595384E+02-0.04068665E-02 0.06892367E-05    3
-0.05266488E-08 0.01508338E-11 0.02166628E+07 0.03895730E+02                   4
C-                121686C   1E   1          G  0300.00   5000.00  1000.00      1
 0.02990221E+02-0.09184596E-02 0.05055560E-05-0.07703410E-09 0.03163271E-13    2
 0.06983931E+06 0.01259453E+02 0.02783903E+02-0.01774288E-01 0.03696761E-04    3
-0.03066693E-07 0.08637622E-11 0.06998511E+06 0.02726281E+02                   4
C2                121286C   2               G  0300.00   5000.00  1000.00      1
 0.04135979E+02 0.06531618E-03 0.01837099E-05-0.05295085E-09 0.04712137E-13    2
 0.09967272E+06 0.07472923E+01 0.06996045E+02-0.07400602E-01 0.03234704E-04    3
 0.04802535E-07-0.03295918E-10 0.09897487E+06-0.01386227E+03                   4
C2-               121286C   2E   1          G  0300.00   5000.00  1000.00      1
 0.03796891E+02 0.02530050E-02 0.09709118E-06-0.01614804E-09-0.03212893E-15    2
 0.05207981E+06 0.01658147E+02 0.03468012E+02-0.02352875E-02 0.01243912E-04    3
 0.04705961E-08-0.08164274E-11 0.05231215E+06 0.03886699E+02                   4
C2CL3              40992C   2CL  3          G  0300.00   4000.00  1500.00      1
 0.01183853E+03 0.09460851E-02-0.02920870E-05 0.03847024E-09-0.01539560E-13    2
 0.02313143E+06-0.02891445E+03 0.04808647E+02 0.02212948E+00-0.02548847E-03    3
 0.01372083E-06-0.02812663E-10 0.02514353E+06 0.07232629E+02                   4
C2CL5              40992C   2CL  5          G  0300.00   4000.00  1500.00      1
 0.01775107E+03 0.09220800E-02-0.04852694E-05 0.01190373E-08-0.01100446E-12    2
-0.02402768E+05-0.05545676E+03 0.06414346E+02 0.03867367E+00-0.04857935E-03    3
 0.02734513E-06-0.05732891E-10 0.04697039E+04 0.01542036E+02                   4
C2CL6              40992C   2CL  6          G  0300.00   4000.00  1500.00      1
 0.02021422E+03 0.01757648E-01-0.05881040E-05 0.08029739E-09-0.03958238E-13    2
-0.02340156E+06-0.07096011E+03 0.07492710E+02 0.04318468E+00-0.05275048E-03    3
 0.02947143E-06-0.06176554E-10-0.02006555E+06-0.06635582E+02                   4
C2F6               82489C   2F   6          G  0300.00   5000.00  1000.00      1
 0.01602057E+03 0.06273007E-01-0.02797778E-04 0.05517547E-08-0.04004651E-12    2
-0.01675654E+07-0.05519459E+03 0.03577448E+02 0.03913670E+00-0.02714862E-03    3
 0.04348459E-08 0.04007135E-10-0.01642174E+07 0.09098384E+02                   4
C2H                81193C   2H   1          G  0300.00   4000.00  1000.00      1
 0.03986367E+02 0.03143123E-01-0.01267243E-04 0.02924363E-08-0.02716320E-12    2
 0.06655884E+06 0.01191063E+02 0.02737704E+02 0.08048446E-01-0.09244310E-04    3
 0.06525259E-07-0.01939580E-10 0.06683813E+06 0.07300220E+02                   4
C2H2              121386C   2H   2          G  0300.00   5000.00  1000.00      1
 0.04436770E+02 0.05376039E-01-0.01912817E-04 0.03286379E-08-0.02156710E-12    2
 0.02566766E+06-0.02800338E+02 0.02013562E+02 0.01519045E+00-0.01616319E-03    3
 0.09078992E-07-0.01912746E-10 0.02612444E+06 0.08805378E+02                   4
C2H3               12787C   2H   3          G  0300.00   5000.00  1000.00      1
 0.05933468E+02 0.04017746E-01-0.03966740E-05-0.01441267E-08 0.02378644E-12    2
 0.03185435E+06-0.08530313E+02 0.02459276E+02 0.07371476E-01 0.02109873E-04    3
-0.01321642E-07-0.01184784E-10 0.03335225E+06 0.01155620E+03                   4
C2H4              121286C   2H   4          G  0300.00   5000.00  1000.00      1
 0.03528419E+02 0.01148518E+00-0.04418385E-04 0.07844601E-08-0.05266848E-12    2
 0.04428289E+05 0.02230389E+02-0.08614880E+01 0.02796163E+00-0.03388677E-03    3
 0.02785152E-06-0.09737879E-10 0.05573046E+05 0.02421149E+03                   4
C2H5               12387C   2H   5          G  0300.00   5000.00  1000.00      1
 0.07190480E+02 0.06484077E-01-0.06428065E-05-0.02347879E-08 0.03880877E-12    2
 0.01067455E+06-0.01478089E+03 0.02690702E+02 0.08719133E-01 0.04419839E-04    3
 0.09338703E-08-0.03927773E-10 0.01287040E+06 0.01213820E+03                   4
C2H6              121686C   2H   6          G  0300.00   4000.00  1000.00      1